6
Final structure: -152.89 hartree
O            0.405831678          1.254635242         -0.010906469
H           -0.373282207          1.809484670         -0.033561902
H            0.072854241          0.347900154         -0.021767571
O           -0.347354961         -1.545910067         -0.007139270
H            0.111150873         -1.987111708         -0.723831233
H           -0.001012703         -1.935401756          0.797206445
