9
Final structure: -229.349 hartree
O           -1.482230233         -0.636365606          0.000175950
H           -0.612479671         -1.060865221         -0.087572925
H           -1.931880167         -1.090475264          0.712331941
O            1.280752735         -0.925883675         -0.288720311
H            1.940445765         -1.234691208          0.331739354
H            1.198241685          0.031888649         -0.141712040
O            0.182310878          1.584801869          0.205364803
H           -0.616074790          1.029972835          0.192269725
H            0.051145796          2.252811622         -0.467425499
