18
Final structure: -458.721 hartree
O            0.024608036          2.695953218          0.085383287
H            0.071587632          3.234407221          0.874710280
H           -0.817986965          2.197319760          0.151214858
O           -2.237769124         -1.328789439          0.640094411
H           -1.431844800         -1.812948052          0.359133066
H           -2.458996423         -1.670786288          1.505702083
O            2.237820532          1.328834126         -0.640110881
H            2.459054673          1.670850067         -1.505709096
H            1.431890459          1.812975487         -0.359141133
O           -0.024610692         -2.696063492         -0.085342889
H            0.817944416         -2.197363208         -0.151186735
H           -0.071583144         -3.234488521         -0.874689951
O            2.305971772         -1.350444409         -0.310901052
H            2.968645928         -1.494093152          0.363949103
H            2.262863437         -0.378758113         -0.440888057
O           -2.306037226          1.350478757          0.310913979
H           -2.968677064          1.494135695         -0.363968118
H           -2.262877383          0.378787384          0.440842838
