6
Final structure: -152.949 hartree
O            0.128423093          1.241172568          0.164797248
H           -0.712312056          1.679711426          0.102086047
H           -0.057470523          0.304634024          0.055309478
O           -0.132806808         -1.525897547         -0.123747234
H            0.415946421         -1.808077257         -0.849418959
H            0.226406795         -1.947946685          0.650973420
