3
Coordinates from ORCA-job 01_H2O E -76.153193254282
  O       0.000000      0.000000      0.124348
  H       0.000000     -1.431393     -0.986748
  H       0.000000      1.431393     -0.986748
3
Coordinates from ORCA-job 01_H2O E -76.191377722221
  O       0.000000     -0.000000      0.093695
  H       0.000000     -1.325569     -0.971422
  H       0.000000      1.325569     -0.971422
3
Coordinates from ORCA-job 01_H2O E -76.233431156152
  O       0.000000     -0.000000      0.061321
  H       0.000000     -1.221240     -0.955235
  H       0.000000      1.221240     -0.955235
3
Coordinates from ORCA-job 01_H2O E -76.278991088747
  O       0.000000     -0.000000      0.024508
  H       0.000000     -1.121625     -0.936828
  H       0.000000      1.121625     -0.936828
3
Coordinates from ORCA-job 01_H2O E -76.327086191044
  O       0.000000      0.000000     -0.016847
  H       0.000000     -1.027211     -0.916151
  H       0.000000      1.027211     -0.916151
3
Coordinates from ORCA-job 01_H2O E -76.375485156698
  O       0.000000     -0.000000     -0.062439
  H       0.000000     -0.937971     -0.893355
  H       0.000000      0.937971     -0.893355
3
Coordinates from ORCA-job 01_H2O E -76.419922625519
  O       0.000000      0.000000     -0.112084
  H       0.000000     -0.853972     -0.868532
  H       0.000000      0.853972     -0.868532
3
Coordinates from ORCA-job 01_H2O E -76.451613550383
  O       0.000000     -0.000000     -0.166967
  H       0.000000     -0.777220     -0.841091
  H       0.000000      0.777220     -0.841091
3
Coordinates from ORCA-job 01_H2O E -76.455471118448
  O       0.000000      0.000000     -0.239459
  H       0.000000     -0.732041     -0.804845
  H       0.000000      0.732041     -0.804844
3
Coordinates from ORCA-job 01_H2O E -76.458423455643
  O       0.000000     -0.000001     -0.219574
  H       0.000000     -0.769231     -0.814787
  H       0.000000      0.769232     -0.814787
3
Coordinates from ORCA-job 01_H2O E -76.458554588429
  O       0.000000      0.000017     -0.221826
  H       0.000000     -0.762695     -0.813667
  H       0.000000      0.762678     -0.813655
3
Coordinates from ORCA-job 01_H2O E -76.458557360013
  O       0.000000     -0.000425     -0.222557
  H       0.000000     -0.761845     -0.813131
  H       0.000000      0.762270     -0.813461
3
Coordinates from ORCA-job 01_H2O E -76.458416848179
  O       0.000000      0.005332     -0.225198
  H       0.000000     -0.762432     -0.814041
  H       0.000000      0.757100     -0.809909
3
Coordinates from ORCA-job 01_H2O E -76.458557950336
  O       0.000000      0.000000     -0.222488
  H       0.000000     -0.762054     -0.813329
  H       0.000000      0.762054     -0.813331
3
Coordinates from ORCA-job 01_H2O E -76.458557975069
  O       0.000000     -0.000000     -0.222502
  H       0.000000     -0.762046     -0.813322
  H       0.000000      0.762047     -0.813325
