15
Coordinates from ORCA-job 05_H2O_5 E -382.353400971799
  O       2.312927      0.150318      0.177415
  O       0.864769     -2.137443     -0.159420
  O      -1.781315     -1.498466      0.059758
  O      -1.961951      1.234812     -0.062774
  O       0.577396      2.241432     -0.075822
  H       1.836849     -0.694236      0.049250
  H      -0.089971     -1.943593     -0.076678
  H      -1.915322     -0.530797      0.048103
  H      -1.066728      1.628166     -0.074484
  H       1.229463      1.522335      0.042111
  H       2.825562      0.034681      0.978576
  H       0.953988     -2.623745     -0.980296
  H      -2.260123     -1.814802      0.826889
  H      -2.472247      1.784461      0.533098
  H       0.863928      2.712310     -0.859811
15
Coordinates from ORCA-job 05_H2O_5 E -382.354138734823
  O       2.307178      0.153501      0.143328
  O       0.862026     -2.132832     -0.131514
  O      -1.773905     -1.492708      0.049300
  O      -1.955497      1.226047     -0.076662
  O       0.568751      2.235238     -0.045674
  H       1.823196     -0.699470      0.033897
  H      -0.101441     -1.933583     -0.059881
  H      -1.907331     -0.516422      0.033814
  H      -1.052509      1.623631     -0.072606
  H       1.228156      1.507765      0.051334
  H       2.851001      0.041333      0.929841
  H       0.957134     -2.644756     -0.941506
  H      -2.265249     -1.810298      0.813920
  H      -2.479329      1.774110      0.516550
  H       0.855047      2.733876     -0.818226
15
Coordinates from ORCA-job 05_H2O_5 E -382.354411534591
  O       2.283749      0.156825      0.090897
  O       0.854133     -2.112897     -0.089252
  O      -1.752842     -1.476793      0.034959
  O      -1.935462      1.207550     -0.099814
  O       0.554304      2.212214      0.001406
  H       1.792302     -0.702082      0.011598
  H      -0.115534     -1.907964     -0.034865
  H      -1.884632     -0.494330      0.012485
  H      -1.027317      1.607744     -0.069800
  H       1.218849      1.477671      0.064386
  H       2.866946      0.049896      0.851047
  H       0.956006     -2.655997     -0.879393
  H      -2.258139     -1.791362      0.793259
  H      -2.474076      1.748757      0.488430
  H       0.838936      2.746201     -0.749427
15
Coordinates from ORCA-job 05_H2O_5 E -382.354376210349
  O       2.271984      0.157621      0.038115
  O       0.849963     -2.105521     -0.048831
  O      -1.744924     -1.469311      0.023436
  O      -1.926106      1.200798     -0.124423
  O       0.547288      2.200582      0.049408
  H       1.776024     -0.703684     -0.009722
  H      -0.122247     -1.896717     -0.011302
  H      -1.874424     -0.484187     -0.006482
  H      -1.016363      1.600714     -0.067371
  H       1.213312      1.462015      0.076526
  H       2.893536      0.056253      0.766885
  H       0.958538     -2.677865     -0.816045
  H      -2.261592     -1.779381      0.774656
  H      -2.478381      1.734975      0.456018
  H       0.830617      2.769140     -0.674953
15
Coordinates from ORCA-job 05_H2O_5 E -382.354312076809
  O       2.267083      0.156922     -0.013062
  O       0.848253     -2.105663     -0.010251
  O      -1.744500     -1.466711      0.012978
  O      -1.922957      1.201231     -0.148968
  O       0.544947      2.195755      0.095883
  H       1.768754     -0.704803     -0.029887
  H      -0.124410     -1.894080      0.010991
  H      -1.871199     -0.480882     -0.024088
  H      -1.013722      1.599130     -0.065650
  H       1.210304      1.455343      0.087838
  H       2.923460      0.061357      0.684457
  H       0.963423     -2.704255     -0.755375
  H      -2.271359     -1.772155      0.758114
  H      -2.487824      1.728117      0.424933
  H       0.826972      2.796128     -0.601999
15
Coordinates from ORCA-job 05_H2O_5 E -382.354226524226
  O       2.262398      0.154924     -0.079513
  O       0.847353     -2.108772      0.040089
  O      -1.746761     -1.465163     -0.001004
  O      -1.920759      1.205931     -0.181607
  O       0.544844      2.191402      0.155635
  H       1.763187     -0.705655     -0.055766
  H      -0.124265     -1.894394      0.040002
  H      -1.868958     -0.479778     -0.047187
  H      -1.014046      1.599471     -0.064439
  H       1.207402      1.450899      0.102109
  H       2.957903      0.067672      0.579790
  H       0.970826     -2.736707     -0.678792
  H      -2.285790     -1.763809      0.737789
  H      -2.500206      1.720747      0.388346
  H       0.824098      2.828665     -0.509536
15
Coordinates from ORCA-job 05_H2O_5 E -382.354143181172
  O       2.258418      0.152848     -0.132077
  O       0.847239     -2.112649      0.079321
  O      -1.748987     -1.464487     -0.011143
  O      -1.918477      1.211284     -0.209906
  O       0.546087      2.187882      0.203255
  H       1.759841     -0.705905     -0.076558
  H      -0.122790     -1.896231      0.063252
  H      -1.866541     -0.479954     -0.065627
  H      -1.014950      1.600278     -0.065160
  H       1.205254      1.448813      0.113688
  H       2.977887      0.072674      0.502391
  H       0.975881     -2.757576     -0.623840
  H      -2.295218     -1.755061      0.725922
  H      -2.508307      1.713354      0.361324
  H       0.821887      2.850165     -0.438927
15
Coordinates from ORCA-job 05_H2O_5 E -382.354098836173
  O       2.256227      0.151571     -0.156153
  O       0.847459     -2.115714      0.095575
  O      -1.749939     -1.464212     -0.013228
  O      -1.916123      1.213662     -0.226794
  O       0.546955      2.185906      0.226630
  H       1.757893     -0.706091     -0.086719
  H      -0.121811     -1.897789      0.074072
  H      -1.864244     -0.480016     -0.073832
  H      -1.014493      1.600218     -0.067344
  H       1.204035      1.447641      0.119699
  H       2.981264      0.075078      0.473007
  H       0.976591     -2.762503     -0.606281
  H      -2.295758     -1.747105      0.727551
  H      -2.510857      1.707309      0.347291
  H       0.820026      2.857479     -0.407559
15
Coordinates from ORCA-job 05_H2O_5 E -382.354103522487
  O       2.256249      0.150825     -0.157760
  O       0.847524     -2.118145      0.094275
  O      -1.750368     -1.464410     -0.009993
  O      -1.914505      1.213653     -0.233102
  O       0.547464      2.186122      0.230440
  H       1.757184     -0.706480     -0.088185
  H      -0.121634     -1.899121      0.074922
  H      -1.862927     -0.480128     -0.074109
  H      -1.013353      1.599825     -0.069714
  H       1.203732      1.447408      0.120908
  H       2.975603      0.075513      0.478387
  H       0.974633     -2.757984     -0.614567
  H      -2.290901     -1.741632      0.737011
  H      -2.510225      1.703506      0.343505
  H       0.818748      2.856479     -0.406103
15
Coordinates from ORCA-job 05_H2O_5 E -382.354140303568
  O       2.257482      0.150078     -0.146923
  O       0.847273     -2.120411      0.083218
  O      -1.750921     -1.465014     -0.003998
  O      -1.913155      1.212413     -0.233667
  O       0.548160      2.187902      0.223454
  H       1.757018     -0.707125     -0.084841
  H      -0.122016     -1.900555      0.070241
  H      -1.862294     -0.480434     -0.070158
  H      -1.011728      1.599378     -0.072147
  H       1.204073      1.447842      0.119292
  H       2.964634      0.075139      0.502974
  H       0.971413     -2.748179     -0.636976
  H      -2.282718     -1.737602      0.751050
  H      -2.507854      1.700637      0.345465
  H       0.817858      2.851365     -0.421068
15
Coordinates from ORCA-job 05_H2O_5 E -382.354180517778
  O       2.258526      0.149512     -0.133793
  O       0.846655     -2.121460      0.071565
  O      -1.751631     -1.465735      0.000576
  O      -1.912204      1.211013     -0.230628
  O       0.548992      2.189874      0.213346
  H       1.756975     -0.707691     -0.080201
  H      -0.122780     -1.901453      0.064465
  H      -1.862391     -0.480857     -0.065712
  H      -1.010310      1.599169     -0.073405
  H       1.204778      1.448545      0.116551
  H       2.955150      0.074871      0.527352
  H       0.969105     -2.739684     -0.657063
  H      -2.275962     -1.736455      0.761476
  H      -2.505353      1.699327      0.349932
  H       0.817675      2.846458     -0.438545
15
Coordinates from ORCA-job 05_H2O_5 E -382.354207456242
  O       2.258852      0.149050     -0.125094
  O       0.845748     -2.121717      0.064222
  O      -1.752641     -1.466438      0.002625
  O      -1.911205      1.209962     -0.227756
  O       0.549922      2.191371      0.206249
  H       1.756694     -0.708111     -0.076929
  H      -0.123762     -1.901911      0.060539
  H      -1.862742     -0.481355     -0.063049
  H      -1.009144      1.599171     -0.073666
  H       1.205528      1.449229      0.114177
  H       2.949392      0.075217      0.542334
  H       0.967998     -2.734869     -0.668581
  H      -2.271630     -1.736707      0.767274
  H      -2.503562      1.698479      0.353314
  H       0.817776      2.844062     -0.449744
15
Coordinates from ORCA-job 05_H2O_5 E -382.354216132308
  O       2.258491      0.148714     -0.122931
  O       0.844729     -2.121466      0.062537
  O      -1.753868     -1.467080      0.002136
  O      -1.910073      1.209346     -0.226562
  O       0.550785      2.192209      0.204261
  H       1.756156     -0.708361     -0.075911
  H      -0.124811     -1.901984      0.059373
  H      -1.863103     -0.481880     -0.062802
  H      -1.008260      1.599313     -0.073129
  H       1.206138      1.449792      0.112737
  H       2.947844      0.076058      0.545712
  H       0.967865     -2.734150     -0.670400
  H      -2.269779     -1.737440      0.768782
  H      -2.502823      1.697649      0.354205
  H       0.817934      2.844712     -0.452092
