18
Coordinates from ORCA-job 07_H2O_6_book E -458.826964621854
  O       0.116757      1.553296      0.874144
  H       0.955357      1.526953      0.363740
  H       0.278593      2.140101      1.614970
  O      -0.028991     -1.369570      0.910464
  H      -0.055528     -0.424567      1.109294
  H      -0.872074     -1.539194      0.457007
  O      -2.340721      1.363977     -0.433023
  H      -1.482171      1.543988     -0.013805
  H      -2.349173      1.886417     -1.236377
  O      -2.490803     -1.412790     -0.437012
  H      -2.562332     -0.444637     -0.504051
  H      -3.290032     -1.695404      0.010212
  O       2.424786      1.214249     -0.477895
  H       2.508896      0.237506     -0.500154
  H       2.554930      1.502809     -1.382466
  O       2.311940     -1.486888     -0.434852
  H       1.449966     -1.577886      0.025804
  H       2.919833     -2.054267      0.041233
18
Coordinates from ORCA-job 07_H2O_6_book E -458.827717080413
  O       0.115187      1.548806      0.873014
  H       0.961385      1.521362      0.357874
  H       0.275511      2.138198      1.617646
  O      -0.028190     -1.368063      0.908945
  H      -0.055555     -0.417519      1.109119
  H      -0.877218     -1.538565      0.451143
  O      -2.335189      1.359843     -0.431490
  H      -1.470096      1.540367     -0.008298
  H      -2.345558      1.884409     -1.239015
  O      -2.482676     -1.412763     -0.437336
  H      -2.553774     -0.436699     -0.503361
  H      -3.285508     -1.698893      0.011319
  O       2.417331      1.214546     -0.476858
  H       2.501462      0.229185     -0.499072
  H       2.546859      1.507040     -1.385049
  O       2.307114     -1.482363     -0.434478
  H       1.437846     -1.573398      0.031058
  H       2.920300     -2.051400      0.042071
18
Coordinates from ORCA-job 07_H2O_6_book E -458.828038409669
  O       0.112408      1.534949      0.865933
  H       0.963351      1.506053      0.347920
  H       0.270827      2.125507      1.611389
  O      -0.024740     -1.359968      0.901511
  H      -0.054042     -0.407444      1.102915
  H      -0.876408     -1.529907      0.440444
  O      -2.315836      1.346581     -0.426326
  H      -1.447475      1.527153     -0.001151
  H      -2.327653      1.871888     -1.234661
  O      -2.456918     -1.403426     -0.436466
  H      -2.527454     -0.423203     -0.499845
  H      -3.260639     -1.691132      0.012075
  O       2.392786      1.207352     -0.471979
  H       2.476360      0.216747     -0.494203
  H       2.520791      1.501883     -1.380860
  O       2.286882     -1.466410     -0.431494
  H       1.413654     -1.557891      0.038044
  H       2.903339     -2.034638      0.043986
18
Coordinates from ORCA-job 07_H2O_6_book E -458.828114152744
  O       0.111079      1.526651      0.860180
  H       0.964744      1.495905      0.340705
  H       0.267456      2.117621      1.604712
  O      -0.021154     -1.355698      0.896931
  H      -0.052209     -0.403133      1.099453
  H      -0.873161     -1.524704      0.433622
  O      -2.303194      1.337695     -0.422633
  H      -1.433561      1.518623      0.002812
  H      -2.316742      1.862283     -1.230358
  O      -2.436851     -1.395150     -0.436405
  H      -2.507293     -0.413291     -0.497274
  H      -3.239634     -1.683840      0.011389
  O       2.375109      1.199973     -0.467599
  H       2.457145      0.206264     -0.490014
  H       2.501806      1.495548     -1.375425
  O       2.270711     -1.453993     -0.429604
  H       1.395599     -1.546274      0.043311
  H       2.889385     -2.020386      0.043428
18
Coordinates from ORCA-job 07_H2O_6_book E -458.828127131244
  O       0.111220      1.527920      0.859030
  H       0.965395      1.496051      0.339627
  H       0.266558      2.119310      1.602848
  O      -0.020119     -1.357528      0.897923
  H      -0.051741     -0.405321      1.100961
  H      -0.871444     -1.526143      0.433669
  O      -2.303397      1.337949     -0.422251
  H      -1.433802      1.519253      0.002614
  H      -2.317954      1.861697     -1.229935
  O      -2.433227     -1.393524     -0.437072
  H      -2.503900     -0.411751     -0.497036
  H      -3.235366     -1.682881      0.010440
  O       2.373805      1.197570     -0.466264
  H       2.454489      0.203107     -0.489059
  H       2.500218      1.493764     -1.373439
  O       2.267870     -1.452332     -0.430206
  H       1.392805     -1.545137      0.044217
  H       2.887823     -2.017910      0.041166
18
Coordinates from ORCA-job 07_H2O_6_book E -458.828153114496
  O       0.111554      1.535230      0.855366
  H       0.966870      1.499523      0.337310
  H       0.263410      2.129033      1.596907
  O      -0.017647     -1.366438      0.904261
  H      -0.051013     -0.415341      1.108962
  H      -0.866284     -1.533865      0.436079
  O      -2.307149      1.341513     -0.421609
  H      -1.437772      1.524060      0.000963
  H      -2.324669      1.862197     -1.230266
  O      -2.423254     -1.389501     -0.439635
  H      -2.494709     -0.408303     -0.496551
  H      -3.223856     -1.681434      0.007298
  O       2.373535      1.190479     -0.461536
  H       2.449023      0.194246     -0.486395
  H       2.499214      1.489507     -1.367068
  O       2.260130     -1.449674     -0.434124
  H       1.386738     -1.544059      0.045682
  H       2.885109     -2.013079      0.031588
18
Coordinates from ORCA-job 07_H2O_6_book E -458.828167708627
  O       0.110882      1.541994      0.851900
  H       0.967134      1.503616      0.335931
  H       0.259943      2.138643      1.591528
  O      -0.016943     -1.374946      0.912108
  H      -0.051561     -0.424460      1.117802
  H      -0.863306     -1.541418      0.439692
  O      -2.311149      1.345155     -0.421410
  H      -1.441601      1.528569     -0.000612
  H      -2.329936      1.862883     -1.231834
  O      -2.415365     -1.386810     -0.441561
  H      -2.487228     -0.405859     -0.495987
  H      -3.215334     -1.680568      0.005152
  O       2.375658      1.186450     -0.457199
  H       2.446563      0.189354     -0.484725
  H       2.500743      1.488302     -1.361779
  O       2.254129     -1.449850     -0.439334
  H       1.383377     -1.544894      0.045494
  H       2.883230     -2.012068      0.022065
18
Coordinates from ORCA-job 07_H2O_6_book E -458.828183659450
  O       0.108016      1.552287      0.844946
  H       0.966280      1.510380      0.333774
  H       0.252493      2.154895      1.580980
  O      -0.017101     -1.389530      0.929049
  H      -0.053631     -0.439664      1.135725
  H      -0.859505     -1.554132      0.447851
  O      -2.317796      1.350650     -0.421412
  H      -1.447242      1.535105     -0.003216
  H      -2.336444      1.862396     -1.236037
  O      -2.400683     -1.382164     -0.444494
  H      -2.472876     -0.401002     -0.494612
  H      -3.200298     -1.678221      0.002108
  O       2.381042      1.182332     -0.448812
  H       2.443644      0.184650     -0.482461
  H       2.504828      1.489296     -1.352203
  O       2.242517     -1.452423     -0.451160
  H       1.378022     -1.547267      0.043608
  H       2.877968     -2.013496      0.003602
18
Coordinates from ORCA-job 07_H2O_6_book E -458.828188678231
  O       0.103590      1.558450      0.837886
  H       0.964362      1.514683      0.332117
  H       0.244348      2.167283      1.570159
  O      -0.018046     -1.400973      0.947904
  H      -0.055972     -0.451279      1.154454
  H      -0.856620     -1.563532      0.457399
  O      -2.322890      1.354023     -0.421879
  H      -1.450767      1.538622     -0.005387
  H      -2.338489      1.859133     -1.241354
  O      -2.385898     -1.377869     -0.446890
  H      -2.458138     -0.395803     -0.493164
  H      -3.185736     -1.674857     -0.000140
  O       2.387267      1.181711     -0.440196
  H       2.441705      0.184474     -0.481059
  H       2.509256      1.492887     -1.342962
  O       2.229529     -1.456318     -0.465016
  H       1.372383     -1.549164      0.040564
  H       2.869349     -2.017378     -0.015202
18
Coordinates from ORCA-job 07_H2O_6_book E -458.828187240202
  O       0.098704      1.558362      0.832230
  H       0.962286      1.514444      0.331551
  H       0.237110      2.172665      1.561037
  O      -0.018788     -1.405889      0.966188
  H      -0.057284     -0.455956      1.171295
  H      -0.853887     -1.566625      0.467372
  O      -2.325577      1.354627     -0.423050
  H      -1.451763      1.538159     -0.007087
  H      -2.335640      1.852879     -1.247357
  O      -2.372804     -1.374757     -0.448786
  H      -2.445114     -0.391431     -0.492350
  H      -3.173105     -1.671303     -0.001598
  O       2.393292      1.183926     -0.432199
  H       2.440171      0.187849     -0.480511
  H       2.512878      1.497659     -1.334939
  O       2.215623     -1.459784     -0.479292
  H       1.365812     -1.548767      0.037174
  H       2.857318     -2.021965     -0.032447
18
Coordinates from ORCA-job 07_H2O_6_book E -458.828191037082
  O       0.095503      1.552117      0.829906
  H       0.961429      1.509259      0.332657
  H       0.233076      2.169671      1.556469
  O      -0.018516     -1.402241      0.979668
  H      -0.056438     -0.451719      1.182288
  H      -0.851132     -1.562052      0.475715
  O      -2.325695      1.353076     -0.425059
  H      -1.450795      1.534485     -0.008506
  H      -2.329603      1.845396     -1.253174
  O      -2.364616     -1.374185     -0.450019
  H      -2.437389     -0.389935     -0.492908
  H      -3.165119     -1.669597     -0.002111
  O       2.397916      1.187240     -0.426366
  H       2.438888      0.192168     -0.480701
  H       2.514905      1.501930     -1.329376
  O       2.203279     -1.461130     -0.490711
  H       1.358896     -1.545231      0.034651
  H       2.844644     -2.025159     -0.045189
18
Coordinates from ORCA-job 07_H2O_6_book E -458.828202757801
  O       0.094324      1.541226      0.830467
  H       0.962238      1.499819      0.335575
  H       0.231492      2.160499      1.555694
  O      -0.016925     -1.391328      0.990749
  H      -0.053098     -0.439803      1.189903
  H      -0.847521     -1.550888      0.483720
  O      -2.324333      1.350836     -0.428340
  H      -1.449065      1.529170     -0.010526
  H      -2.321574      1.836838     -1.260071
  O      -2.359456     -1.376325     -0.450959
  H      -2.433548     -0.391786     -0.495043
  H      -3.159534     -1.670788     -0.001885
  O       2.402229      1.190270     -0.421279
  H       2.437194      0.195600     -0.481234
  H       2.516205      1.505905     -1.324358
  O       2.190098     -1.460206     -0.501052
  H       1.350124     -1.538292      0.032915
  H       2.830383     -2.026655     -0.057043
18
Coordinates from ORCA-job 07_H2O_6_book E -458.828216325390
  O       0.095522      1.531523      0.833006
  H       0.964549      1.490676      0.339307
  H       0.231701      2.151245      1.557825
  O      -0.014488     -1.379096      0.998204
  H      -0.048324     -0.426458      1.194248
  H      -0.843711     -1.538574      0.489938
  O      -2.322989      1.350113     -0.432101
  H      -1.448206      1.525823     -0.013256
  H      -2.315235      1.830194     -1.266941
  O      -2.357060     -1.380464     -0.451498
  H      -2.433311     -0.396595     -0.498005
  H      -3.155921     -1.675257     -0.000995
  O       2.405994      1.190842     -0.417192
  H       2.435212      0.195661     -0.481547
  H       2.517487      1.508636     -1.319631
  O       2.178282     -1.457520     -0.508716
  H       1.341230     -1.530638      0.032238
  H       2.818503     -2.026019     -0.067654
18
Coordinates from ORCA-job 07_H2O_6_book E -458.828225480055
  O       0.097744      1.527716      0.835440
  H       0.967122      1.486061      0.342385
  H       0.231929      2.147646      1.560188
  O      -0.012383     -1.372068      1.002842
  H      -0.044150     -0.418606      1.197089
  H      -0.840800     -1.530859      0.494005
  O      -2.322778      1.351555     -0.435264
  H      -1.448847      1.526313     -0.016216
  H      -2.312554      1.826631     -1.272721
  O      -2.355835     -1.384541     -0.451564
  H      -2.434441     -0.401893     -0.500453
  H      -3.153114     -1.680843      0.000356
  O       2.409210      1.188852     -0.413774
  H       2.433455      0.192753     -0.481253
  H       2.519426      1.510126     -1.314920
  O       2.169507     -1.454788     -0.513797
  H       1.334285     -1.525593      0.031968
  H       2.811459     -2.024366     -0.077080
18
Coordinates from ORCA-job 07_H2O_6_book E -458.828229460745
  O       0.099423      1.529010      0.836641
  H       0.968846      1.486136      0.344084
  H       0.231478      2.149363      1.561300
  O      -0.011680     -1.371115      1.005213
  H      -0.041999     -0.417289      1.198764
  H      -0.839901     -1.528593      0.496013
  O      -2.323152      1.353357     -0.437197
  H      -1.449832      1.528807     -0.018478
  H      -2.312251      1.824856     -1.276664
  O      -2.355267     -1.386998     -0.450953
  H      -2.435561     -0.405307     -0.501563
  H      -3.151320     -1.684718      0.002159
  O       2.411504      1.186465     -0.411065
  H       2.432606      0.189798     -0.480543
  H       2.521681      1.511158     -1.310909
  O       2.164863     -1.453332     -0.516813
  H       1.330667     -1.524313      0.031260
  H       2.809128     -2.023192     -0.084017
18
Coordinates from ORCA-job 07_H2O_6_book E -458.828231262717
  O       0.100347      1.531259      0.837146
  H       0.969924      1.487683      0.345178
  H       0.230656      2.152206      1.561620
  O      -0.012026     -1.371970      1.006592
  H      -0.041008     -0.417959      1.199503
  H      -0.840492     -1.527845      0.497183
  O      -2.322965      1.353926     -0.438577
  H      -1.449965      1.530717     -0.020138
  H      -2.311506      1.822285     -1.279903
  O      -2.355121     -1.388370     -0.449673
  H      -2.436523     -0.407154     -0.501865
  H      -3.150336     -1.686715      0.004661
  O       2.413224      1.185156     -0.408426
  H       2.432377      0.188402     -0.479703
  H       2.523906      1.512664     -1.307210
  O       2.162027     -1.452700     -0.519412
  H       1.328648     -1.524680      0.029774
  H       2.808064     -2.022812     -0.089518
18
Coordinates from ORCA-job 07_H2O_6_book E -458.828233403538
  O       0.101249      1.534230      0.837733
  H       0.971275      1.490358      0.346785
  H       0.229268      2.156199      1.561793
  O      -0.013229     -1.373211      1.008001
  H      -0.039870     -0.418883      1.199518
  H      -0.842507     -1.526395      0.498620
  O      -2.321512      1.353036     -0.440577
  H      -1.448868      1.532228     -0.022335
  H      -2.308722      1.816240     -1.284907
  O      -2.355596     -1.389949     -0.446960
  H      -2.438297     -0.409063     -0.501909
  H      -3.149701     -1.688324      0.009541
  O       2.415567      1.184514     -0.403980
  H       2.432398      0.187983     -0.478291
  H       2.527397      1.515759     -1.301319
  O       2.158222     -1.451989     -0.523695
  H       1.326038     -1.525831      0.026604
  H       2.806121     -2.022811     -0.097389
18
Coordinates from ORCA-job 07_H2O_6_book E -458.828235017644
  O       0.101857      1.536618      0.838413
  H       0.972618      1.493283      0.348715
  H       0.227738      2.159858      1.561805
  O      -0.014920     -1.373872      1.008921
  H      -0.038536     -0.419077      1.198362
  H      -0.845481     -1.524030      0.500064
  O      -2.318529      1.350116     -0.442836
  H      -1.446247      1.532105     -0.024496
  H      -2.303591      1.806940     -1.290731
  O      -2.357031     -1.391371     -0.443268
  H      -2.440778     -0.410532     -0.501712
  H      -3.149960     -1.688809      0.016037
  O       2.418008      1.185145     -0.398429
  H       2.432605      0.189117     -0.476554
  H       2.531480      1.519845     -1.294344
  O       2.153989     -1.450999     -0.529022
  H       1.323086     -1.527119      0.022229
  H       2.802927     -2.023124     -0.105920
18
Coordinates from ORCA-job 07_H2O_6_book E -458.828237226919
  O       0.102004      1.537408      0.839034
  H       0.973395      1.495246      0.350127
  H       0.226946      2.161572      1.561802
  O      -0.016108     -1.373563      1.008555
  H      -0.037361     -0.418379      1.196275
  H      -0.847849     -1.522075      0.500760
  O      -2.315329      1.346520     -0.444313
  H      -1.443317      1.530227     -0.025538
  H      -2.298443      1.798773     -1.294604
  O      -2.359266     -1.392105     -0.440367
  H      -2.443170     -0.411053     -0.501416
  H      -3.151461     -1.688061      0.021118
  O       2.419422      1.186724     -0.394416
  H       2.432864      0.191143     -0.475265
  H       2.534414      1.522776     -1.289643
  O       2.151413     -1.449889     -0.532739
  H       1.321113     -1.527739      0.018800
  H       2.799963     -2.023431     -0.110937
18
Coordinates from ORCA-job 07_H2O_6_book E -458.828239289298
  O       0.101900      1.537281      0.839499
  H       0.973667      1.496269      0.350933
  H       0.226723      2.162038      1.561747
  O      -0.016525     -1.372854      1.007727
  H      -0.036365     -0.417442      1.194502
  H      -0.848955     -1.521255      0.501055
  O      -2.313006      1.343808     -0.445059
  H      -1.441196      1.527853     -0.025700
  H      -2.294656      1.793707     -1.296486
  O      -2.361390     -1.392446     -0.438798
  H      -2.444797     -0.411170     -0.501161
  H      -3.153258     -1.687053      0.023949
  O       2.420092      1.188203     -0.392254
  H       2.432948      0.192819     -0.474535
  H       2.536226      1.524086     -1.287386
  O       2.150160     -1.448741     -0.534690
  H       1.319961     -1.527518      0.016930
  H       2.797704     -2.023494     -0.113041
18
Coordinates from ORCA-job 07_H2O_6_book E -458.828241072102
  O       0.101844      1.537181      0.839912
  H       0.973829      1.497076      0.351516
  H       0.226623      2.162472      1.561676
  O      -0.016529     -1.372235      1.006924
  H      -0.035324     -0.416716      1.193275
  H      -0.849343     -1.521337      0.501346
  O      -2.311463      1.342070     -0.445693
  H      -1.439851      1.525623     -0.025673
  H      -2.291779      1.790568     -1.297738
  O      -2.363322     -1.392868     -0.437839
  H      -2.445948     -0.411479     -0.500905
  H      -3.154993     -1.686364      0.025802
  O       2.420699      1.189239     -0.390821
  H       2.432855      0.193852     -0.473995
  H       2.537911      1.524667     -1.285968
  O       2.149210     -1.447484     -0.535951
  H       1.318975     -1.526798      0.015854
  H       2.795838     -2.023373     -0.114487
18
Coordinates from ORCA-job 07_H2O_6_book E -458.828242360912
  O       0.101921      1.537537      0.840452
  H       0.974151      1.498329      0.352375
  H       0.226153      2.163681      1.561550
  O      -0.016493     -1.371728      1.006203
  H      -0.033810     -0.416144      1.192260
  H      -0.849710     -1.521941      0.502015
  O      -2.309992      1.340572     -0.446937
  H      -1.438682      1.523015     -0.025966
  H      -2.288222      1.787154     -1.299867
  O      -2.365677     -1.393785     -0.436472
  H      -2.447204     -0.412403     -0.500438
  H      -3.157030     -1.685928      0.028456
  O       2.421935      1.190091     -0.388740
  H       2.432620      0.194617     -0.473179
  H       2.540798      1.525559     -1.283652
  O       2.147559     -1.445719     -0.537838
  H       1.317428     -1.525626      0.014489
  H       2.793490     -2.023188     -0.117477
