18
Coordinates from ORCA-job 08_H2O_6_cage E -458.826552707614
  O       0.862065     -1.728538     -0.448765
  H       1.679686     -1.216793     -0.290371
  H       1.141594     -2.607406     -0.709910
  O      -0.751083      0.359939     -1.648316
  H      -0.283702     -0.473988     -1.502279
  H      -1.624922      0.215720     -1.247934
  O       0.590537      1.756310      0.198185
  H       0.069166      1.374794     -0.548651
  H       0.493944      2.707937      0.134574
  O      -0.675492     -0.446436      1.665684
  H      -0.188802     -1.063799      1.102054
  H      -0.260662      0.405216      1.474464
  O       2.803582      0.112403      0.084677
  H       2.165098      0.844551      0.158067
  H       3.282044      0.106258      0.915526
  O      -2.901034      0.010949      0.089937
  H      -2.258917     -0.224605      0.785219
  H      -3.643112     -0.584893      0.198028
18
Coordinates from ORCA-job 08_H2O_6_cage E -458.827156070329
  O       0.862958     -1.728670     -0.449115
  H       1.685940     -1.210172     -0.289803
  H       1.143335     -2.611683     -0.711522
  O      -0.750462      0.360414     -1.649122
  H      -0.280255     -0.478197     -1.501041
  H      -1.629846      0.214961     -1.245172
  O       0.593832      1.759744      0.199018
  H       0.067537      1.374028     -0.554299
  H       0.499351      2.715973      0.136655
  O      -0.680789     -0.447804      1.670198
  H      -0.190353     -1.067491      1.102794
  H      -0.262417      0.408001      1.478155
  O       2.804224      0.110062      0.081356
  H       2.161130      0.848546      0.156253
  H       3.287036      0.100904      0.914855
  O      -2.903434      0.011433      0.087738
  H      -2.257225     -0.226257      0.790109
  H      -3.650575     -0.586172      0.193134
18
Coordinates from ORCA-job 08_H2O_6_cage E -458.827367923724
  O       0.858433     -1.718789     -0.446135
  H       1.682676     -1.195457     -0.287224
  H       1.139917     -2.602353     -0.708616
  O      -0.743984      0.361174     -1.639872
  H      -0.273728     -0.479271     -1.490375
  H      -1.624908      0.214577     -1.233755
  O       0.595027      1.752282      0.197987
  H       0.066068      1.364568     -0.558238
  H       0.503125      2.709635      0.136143
  O      -0.684322     -0.448369      1.666143
  H      -0.191660     -1.067070      1.096709
  H      -0.263374      0.407957      1.474561
  O       2.787061      0.106319      0.076222
  H       2.142745      0.847617      0.152357
  H       3.271528      0.095304      0.909790
  O      -2.887362      0.012293      0.085444
  H      -2.241176     -0.227316      0.791602
  H      -3.636075     -0.585480      0.187446
18
Coordinates from ORCA-job 08_H2O_6_cage E -458.827483339956
  O       0.851298     -1.704734     -0.439309
  H       1.676043     -1.175240     -0.282762
  H       1.133466     -2.587783     -0.700707
  O      -0.734228      0.364515     -1.625130
  H      -0.265374     -0.477668     -1.474360
  H      -1.615626      0.215911     -1.216544
  O       0.596027      1.739714      0.195728
  H       0.063744      1.350082     -0.563380
  H       0.507898      2.696956      0.134884
  O      -0.689174     -0.450810      1.660004
  H      -0.193882     -1.067081      1.088340
  H      -0.265628      0.405294      1.470505
  O       2.761352      0.102364      0.067416
  H       2.115777      0.845591      0.145176
  H       3.247707      0.089848      0.899278
  O      -2.861386      0.013545      0.081922
  H      -2.217161     -0.229311      0.792136
  H      -3.610864     -0.583574      0.176994
18
Coordinates from ORCA-job 08_H2O_6_cage E -458.827496187569
  O       0.850338     -1.704186     -0.435821
  H       1.674989     -1.173407     -0.281448
  H       1.131925     -2.587207     -0.696099
  O      -0.733082      0.367438     -1.622840
  H      -0.265160     -0.475199     -1.472332
  H      -1.614278      0.218021     -1.213707
  O       0.596443      1.737737      0.195095
  H       0.063103      1.348034     -0.564467
  H       0.509234      2.694640      0.135054
  O      -0.690729     -0.453476      1.660647
  H      -0.194941     -1.069061      1.088554
  H      -0.267214      0.402808      1.472772
  O       2.759001      0.103430      0.063922
  H       2.112442      0.845894      0.142135
  H       3.246368      0.091463      0.894628
  O      -2.857333      0.013941      0.080609
  H      -2.214323     -0.230339      0.791348
  H      -3.606793     -0.582912      0.172140
18
Coordinates from ORCA-job 08_H2O_6_cage E -458.827521699496
  O       0.849127     -1.706217     -0.423291
  H       1.673007     -1.172074     -0.277640
  H       1.128955     -2.590047     -0.679195
  O      -0.731895      0.377720     -1.618411
  H      -0.266858     -0.466187     -1.469440
  H      -1.612518      0.226056     -1.207742
  O       0.598190      1.733593      0.194020
  H       0.061765      1.344529     -0.566153
  H       0.513447      2.690009      0.136962
  O      -0.695927     -0.463788      1.666045
  H      -0.198813     -1.077229      1.092745
  H      -0.273174      0.393503      1.484421
  O       2.758234      0.109032      0.050952
  H       2.107666      0.847700      0.131234
  H       3.250021      0.099793      0.878009
  O      -2.850142      0.015737      0.075519
  H      -2.211320     -0.233469      0.787415
  H      -3.599775     -0.581043      0.154740
18
Coordinates from ORCA-job 08_H2O_6_cage E -458.827535463761
  O       0.849486     -1.709206     -0.412368
  H       1.672465     -1.172588     -0.275000
  H       1.128929     -2.594216     -0.664043
  O      -0.732424      0.385282     -1.616841
  H      -0.269070     -0.459393     -1.469433
  H      -1.612931      0.232670     -1.205038
  O       0.600217      1.731276      0.194806
  H       0.061780      1.343368     -0.565281
  H       0.517002      2.687831      0.140122
  O      -0.701273     -0.472974      1.672892
  H      -0.203000     -1.084502      1.098560
  H      -0.279094      0.385336      1.497130
  O       2.761777      0.114452      0.038089
  H       2.107252      0.849303      0.121273
  H       3.258046      0.107920      0.862326
  O      -2.848319      0.018077      0.070311
  H      -2.212927     -0.235276      0.783108
  H      -3.597925     -0.579739      0.139576
18
Coordinates from ORCA-job 08_H2O_6_cage E -458.827548418768
  O       0.851032     -1.712853     -0.396386
  H       1.672677     -1.172672     -0.271888
  H       1.131896     -2.599731     -0.641153
  O      -0.733931      0.393493     -1.616604
  H      -0.271738     -0.451757     -1.471490
  H      -1.614688      0.241188     -1.203390
  O       0.603885      1.728169      0.198833
  H       0.063571      1.342522     -0.560714
  H       0.522047      2.685320      0.146901
  O      -0.711539     -0.486233      1.684933
  H      -0.211181     -1.094506      1.108939
  H      -0.289472      0.373461      1.518335
  O       2.770021      0.122239      0.016218
  H       2.109207      0.851036      0.105754
  H       3.273446      0.119712      0.836545
  O      -2.849084      0.022811      0.061672
  H      -2.218429     -0.236400      0.775952
  H      -3.597732     -0.578181      0.117732
18
Coordinates from ORCA-job 08_H2O_6_cage E -458.827550048200
  O       0.852807     -1.713738     -0.380644
  H       1.673430     -1.169842     -0.269544
  H       1.137204     -2.602269     -0.617671
  O      -0.734749      0.397898     -1.618102
  H      -0.272283     -0.447232     -1.474981
  H      -1.616059      0.247937     -1.203892
  O       0.608027      1.724282      0.206450
  H       0.067327      1.341295     -0.552630
  H       0.526388      2.682089      0.156033
  O      -0.725472     -0.498609      1.698141
  H      -0.222291     -1.102874      1.120245
  H      -0.302282      0.362055      1.541172
  O       2.779697      0.129110     -0.009247
  H       2.112436      0.851532      0.089330
  H       3.290619      0.130092      0.807176
  O      -2.851716      0.028923      0.052534
  H      -2.225309     -0.235753      0.768498
  H      -3.597785     -0.577276      0.097321
18
Coordinates from ORCA-job 08_H2O_6_cage E -458.827538932525
  O       0.853548     -1.710188     -0.367089
  H       1.673889     -1.162945     -0.268206
  H       1.142508     -2.599860     -0.596413
  O      -0.733215      0.397588     -1.620874
  H      -0.269225     -0.446708     -1.478836
  H      -1.615192      0.251738     -1.206450
  O       0.611575      1.719285      0.217307
  H       0.072386      1.338794     -0.542111
  H       0.528604      2.677453      0.166719
  O      -0.741914     -0.507812      1.709722
  H      -0.235324     -1.107679      1.129936
  H      -0.316232      0.353102      1.561498
  O       2.788347      0.133778     -0.035321
  H       2.115766      0.850406      0.074191
  H       3.306245      0.136618      0.777358
  O      -2.854524      0.035299      0.044793
  H      -2.231030     -0.233547      0.762260
  H      -3.596223     -0.577702      0.081706
18
Coordinates from ORCA-job 08_H2O_6_cage E -458.827523905030
  O       0.851999     -1.703106     -0.358599
  H       1.673025     -1.154040     -0.267826
  H       1.143810     -2.593472     -0.582254
  O      -0.728783      0.393708     -1.623523
  H      -0.263055     -0.449486     -1.481184
  H      -1.611264      0.251985     -1.209818
  O       0.612826      1.714257      0.228365
  H       0.076568      1.335216     -0.532620
  H       0.527451      2.672304      0.176456
  O      -0.755668     -0.511183      1.715520
  H      -0.246124     -1.107634      1.134505
  H      -0.327073      0.349324      1.572818
  O       2.793018      0.135352     -0.054865
  H       2.117941      0.848369      0.064319
  H       3.316043      0.137449      0.754729
  O      -2.855529      0.039475      0.040909
  H      -2.232736     -0.231111      0.759033
  H      -3.592460     -0.579788      0.074221
18
Coordinates from ORCA-job 08_H2O_6_cage E -458.827518259332
  O       0.848185     -1.695220     -0.354295
  H       1.670601     -1.146231     -0.267769
  H       1.139606     -2.586361     -0.574562
  O      -0.722527      0.388950     -1.625373
  H      -0.255730     -0.453432     -1.481682
  H      -1.605329      0.250079     -1.213021
  O       0.611385      1.710069      0.237876
  H       0.078655      1.331473     -0.525650
  H       0.523306      2.667671      0.184724
  O      -0.763971     -0.509511      1.715448
  H      -0.252531     -1.104210      1.134088
  H      -0.333088      0.350409      1.574985
  O       2.794209      0.135011     -0.066463
  H       2.119259      0.846694      0.059822
  H       3.320873      0.134267      0.740561
  O      -2.854723      0.040689      0.040502
  H      -2.230670     -0.229507      0.758315
  H      -3.587518     -0.583222      0.072683
18
Coordinates from ORCA-job 08_H2O_6_cage E -458.827520063272
  O       0.842583     -1.688376     -0.350664
  H       1.666827     -1.140951     -0.267187
  H       1.130307     -2.580956     -0.568441
  O      -0.715359      0.385693     -1.626565
  H      -0.248554     -0.456495     -1.481152
  H      -1.598484      0.248154     -1.215764
  O       0.607867      1.706337      0.246375
  H       0.078839      1.327951     -0.520334
  H       0.517263      2.663441      0.193111
  O      -0.767671     -0.505424      1.712018
  H      -0.255176     -1.099781      1.130994
  H      -0.335555      0.354201      1.572159
  O       2.793887      0.134621     -0.074190
  H       2.120536      0.846254      0.057768
  H       3.324143      0.130008      0.730062
  O      -2.852908      0.039796      0.041506
  H      -2.226499     -0.229023      0.758306
  H      -3.582054     -0.587831      0.072187
18
Coordinates from ORCA-job 08_H2O_6_cage E -458.827525554756
  O       0.836560     -1.684404     -0.345654
  H       1.662707     -1.139495     -0.265647
  H       1.118288     -2.579185     -0.560951
  O      -0.708891      0.385673     -1.627517
  H      -0.243219     -0.457065     -1.480826
  H      -1.592405      0.247925     -1.217949
  O       0.603307      1.702997      0.253686
  H       0.077516      1.325261     -0.516299
  H       0.510961      2.659836      0.202109
  O      -0.767580     -0.501097      1.707790
  H      -0.254666     -1.096246      1.127615
  H      -0.335542      0.358776      1.567995
  O       2.793543      0.135246     -0.080566
  H       2.122400      0.847427      0.056143
  H       3.327892      0.126975      0.720615
  O      -2.851330      0.037801      0.042254
  H      -2.222348     -0.229595      0.757695
  H      -3.577203     -0.593210      0.069695
18
Coordinates from ORCA-job 08_H2O_6_cage E -458.827528766356
  O       0.832188     -1.684173     -0.339033
  H       1.659845     -1.141742     -0.263402
  H       1.108092     -2.581387     -0.551502
  O      -0.704976      0.389094     -1.628560
  H      -0.241103     -0.454704     -1.481777
  H      -1.588861      0.250130     -1.219367
  O       0.599450      1.700176      0.259178
  H       0.075657      1.323835     -0.513371
  H       0.506663      2.657143      0.210780
  O      -0.765688     -0.498431      1.705435
  H      -0.252640     -1.094823      1.126304
  H      -0.334692      0.362129      1.565979
  O       2.793898      0.137035     -0.086988
  H       2.124691      0.849806      0.053659
  H       3.332526      0.126524      0.711273
  O      -2.850944      0.036060      0.041540
  H      -2.220249     -0.230682      0.755873
  H      -3.573867     -0.598371      0.064167
18
Coordinates from ORCA-job 08_H2O_6_cage E -458.827529779160
  O       0.830777     -1.686355     -0.333507
  H       1.659289     -1.145554     -0.261583
  H       1.103546     -2.585281     -0.543563
  O      -0.704283      0.393452     -1.629598
  H      -0.241914     -0.451309     -1.483840
  H      -1.588287      0.253296     -1.219896
  O       0.597515      1.698193      0.262275
  H       0.074286      1.323493     -0.511542
  H       0.505404      2.655540      0.216965
  O      -0.764083     -0.497325      1.705577
  H      -0.250921     -1.094723      1.127367
  H      -0.334136      0.363828      1.566490
  O       2.794349      0.138788     -0.092139
  H       2.126458      0.852122      0.051169
  H       3.336155      0.127606      0.704203
  O      -2.851605      0.035404      0.039807
  H      -2.220456     -0.231382      0.753711
  H      -3.572104     -0.602173      0.058294
18
Coordinates from ORCA-job 08_H2O_6_cage E -458.827527959682
  O       0.831038     -1.689119     -0.328855
  H       1.660290     -1.149509     -0.260273
  H       1.102485     -2.589247     -0.536491
  O      -0.705145      0.397597     -1.630701
  H      -0.243912     -0.447965     -1.486713
  H      -1.588977      0.256650     -1.219912
  O       0.596593      1.696029      0.265029
  H       0.073372      1.323182     -0.509518
  H       0.505643      2.653799      0.222437
  O      -0.763752     -0.496226      1.707117
  H      -0.250229     -1.094325      1.129866
  H      -0.334392      0.365245      1.568248
  O       2.794393      0.140197     -0.097333
  H       2.127749      0.854256      0.048651
  H       3.339014      0.128724      0.697395
  O      -2.852499      0.035561      0.037479
  H      -2.221580     -0.231461      0.751462
  H      -3.570100     -0.605769      0.052302
18
Coordinates from ORCA-job 08_H2O_6_cage E -458.827524080466
  O       0.832462     -1.691786     -0.325273
  H       1.662633     -1.153296     -0.259572
  H       1.103654     -2.592775     -0.530403
  O      -0.706873      0.401184     -1.631769
  H      -0.246459     -0.445048     -1.490250
  H      -1.590178      0.259861     -1.219349
  O       0.596090      1.693124      0.268318
  H       0.072682      1.322334     -0.506821
  H       0.506540      2.651260      0.227924
  O      -0.764933     -0.493905      1.709393
  H      -0.250669     -1.092496      1.133333
  H      -0.335485      0.367496      1.570175
  O       2.793605      0.141082     -0.102741
  H       2.128660      0.856298      0.046439
  H       3.341080      0.128927      0.690263
  O      -2.853154      0.036182      0.034922
  H      -2.222827     -0.230882      0.749435
  H      -3.566840     -0.609939      0.046166
18
Coordinates from ORCA-job 08_H2O_6_cage E -458.827519260787
  O       0.834315     -1.693121     -0.323995
  H       1.665449     -1.155511     -0.259813
  H       1.105732     -2.594495     -0.527259
  O      -0.708524      0.402915     -1.632238
  H      -0.248369     -0.443673     -1.493111
  H      -1.591093      0.261726     -1.218153
  O       0.595835      1.690026      0.271671
  H       0.072273      1.320805     -0.503957
  H       0.507277      2.648287      0.232021
  O      -0.767653     -0.490411      1.711474
  H      -0.252374     -1.089120      1.136579
  H      -0.337303      0.370484      1.571234
  O       2.792307      0.141209     -0.106933
  H       2.129188      0.857676      0.045330
  H       3.342163      0.127697      0.684419
  O      -2.853069      0.036822      0.033140
  H      -2.223400     -0.229872      0.748491
  H      -3.562765     -0.613823      0.041292
18
Coordinates from ORCA-job 08_H2O_6_cage E -458.827517328319
  O       0.835585     -1.692856     -0.325093
  H       1.667321     -1.155696     -0.260772
  H       1.106978     -2.594233     -0.527769
  O      -0.709334      0.402544     -1.631761
  H      -0.248938     -0.444039     -1.494002
  H      -1.591342      0.261728     -1.216661
  O       0.595759      1.687943      0.273855
  H       0.072133      1.319211     -0.502013
  H       0.507393      2.646097      0.233366
  O      -0.770596     -0.487163      1.712587
  H      -0.254459     -1.085680      1.138425
  H      -0.339061      0.373087      1.571129
  O       2.791553      0.140899     -0.108584
  H       2.129605      0.858068      0.045546
  H       3.342713      0.125907      0.681667
  O      -2.852425      0.037010      0.032736
  H      -2.223219     -0.229060      0.748861
  H      -3.559676     -0.616149      0.038672
18
Coordinates from ORCA-job 08_H2O_6_cage E -458.827516527711
  O       0.836051     -1.691890     -0.326724
  H       1.668071     -1.154988     -0.261845
  H       1.106806     -2.593297     -0.529391
  O      -0.709475      0.401474     -1.630638
  H      -0.248702     -0.444990     -1.493492
  H      -1.591209      0.260946     -1.215068
  O       0.595715      1.686609      0.275367
  H       0.072060      1.317749     -0.500629
  H       0.507131      2.644595      0.233487
  O      -0.773210     -0.484606      1.713255
  H      -0.256415     -1.082844      1.139529
  H      -0.340649      0.375107      1.570831
  O       2.791842      0.140762     -0.109347
  H       2.130416      0.858022      0.046012
  H       3.343971      0.124505      0.679999
  O      -2.851825      0.036799      0.032821
  H      -2.222958     -0.228656      0.749604
  H      -3.557630     -0.617679      0.036418
18
Coordinates from ORCA-job 08_H2O_6_cage E -458.827517169475
  O       0.836001     -1.690897     -0.328425
  H       1.668021     -1.154192     -0.262915
  H       1.105763     -2.592407     -0.531386
  O      -0.709476      0.400406     -1.628957
  H      -0.248352     -0.445931     -1.492051
  H      -1.591166      0.259957     -1.213257
  O       0.595812      1.685747      0.276362
  H       0.071994      1.316460     -0.499563
  H       0.507013      2.643608      0.232994
  O      -0.775295     -0.482503      1.713914
  H      -0.258021     -1.080541      1.140503
  H      -0.341966      0.376816      1.570711
  O       2.793087      0.140886     -0.109758
  H       2.131738      0.857824      0.046461
  H       3.346144      0.123773      0.678778
  O      -2.851686      0.036312      0.032872
  H      -2.223188     -0.228588      0.750269
  H      -3.556435     -0.619112      0.033637
18
Coordinates from ORCA-job 08_H2O_6_cage E -458.827517542648
  O       0.835454     -1.689972     -0.329940
  H       1.667272     -1.153468     -0.264016
  H       1.103997     -2.591702     -0.533222
  O      -0.709525      0.399661     -1.626520
  H      -0.248142     -0.446620     -1.489747
  H      -1.591388      0.259032     -1.210940
  O       0.596163      1.684863      0.277368
  H       0.071958      1.315034     -0.498299
  H       0.507436      2.642681      0.232527
  O      -0.777228     -0.480294      1.714979
  H      -0.259520     -1.078263      1.141969
  H      -0.343296      0.378726      1.571100
  O       2.795386      0.141287     -0.110657
  H       2.133851      0.857586      0.046606
  H       3.349823      0.123725      0.676838
  O      -2.852354      0.035580      0.032463
  H      -2.224397     -0.228787      0.750572
  H      -3.555501     -0.621451      0.029110
18
Coordinates from ORCA-job 08_H2O_6_cage E -458.827516747045
  O       0.834344     -1.689232     -0.330930
  H       1.665813     -1.152860     -0.264971
  H       1.102004     -2.591206     -0.534391
  O      -0.709664      0.399585     -1.623544
  H      -0.248237     -0.446785     -1.486845
  H      -1.591918      0.258482     -1.208409
  O       0.596923      1.683842      0.278449
  H       0.072079      1.313526     -0.496782
  H       0.508856      2.641739      0.232488
  O      -0.778770     -0.477932      1.716455
  H      -0.260686     -1.076067      1.144032
  H      -0.344482      0.380913      1.572058
  O       2.798325      0.141745     -0.112301
  H       2.136522      0.857306      0.046312
  H       3.354658      0.124347      0.673908
  O      -2.854209      0.034685      0.031435
  H      -2.226932     -0.229215      0.750271
  H      -3.554635     -0.625254      0.022955
18
Coordinates from ORCA-job 08_H2O_6_cage E -458.827513181661
  O       0.832566     -1.688494     -0.331286
  H       1.663622     -1.152026     -0.265713
  H       1.100277     -2.590578     -0.534643
  O      -0.709805      0.400298     -1.620106
  H      -0.248628     -0.446348     -1.483452
  H      -1.592650      0.258438     -1.205853
  O       0.598328      1.682469      0.279827
  H       0.072584      1.311809     -0.494820
  H       0.511760      2.640565      0.233156
  O      -0.780107     -0.475143      1.718364
  H      -0.261614     -1.073715      1.146865
  H      -0.345652      0.383602      1.573610
  O       2.801404      0.141927     -0.115017
  H       2.139476      0.856894      0.045513
  H       3.360348      0.125348      0.669495
  O      -2.857534      0.033661      0.029771
  H      -2.231050     -0.229836      0.749335
  H      -3.553335     -0.631253      0.015144
18
Coordinates from ORCA-job 08_H2O_6_cage E -458.827509272738
  O       0.830538     -1.687729     -0.331289
  H       1.661215     -1.150772     -0.266043
  H       1.099786     -2.589535     -0.534441
  O      -0.709816      0.401473     -1.617220
  H      -0.249150     -0.445572     -1.480464
  H      -1.593271      0.258781     -1.204236
  O       0.600288      1.681278      0.280962
  H       0.073602      1.310429     -0.493071
  H       0.515769      2.639596      0.233990
  O      -0.780798     -0.472485      1.719896
  H      -0.261941     -1.071724      1.149528
  H      -0.346382      0.386227      1.574950
  O       2.803144      0.141348     -0.117553
  H       2.141507      0.856298      0.044797
  H       3.364667      0.126002      0.665287
  O      -2.861627      0.032698      0.028326
  H      -2.235731     -0.230507      0.748303
  H      -3.551812     -0.638184      0.008467
18
Coordinates from ORCA-job 08_H2O_6_cage E -458.827507288953
  O       0.828846     -1.686902     -0.331308
  H       1.659229     -1.149041     -0.265959
  H       1.100806     -2.588007     -0.534340
  O      -0.709671      0.402604     -1.615491
  H      -0.249611     -0.444842     -1.478492
  H      -1.593569      0.259220     -1.203896
  O       0.602538      1.680695      0.281536
  H       0.075053      1.309722     -0.491955
  H       0.520038      2.639152      0.234303
  O      -0.780998     -0.470476      1.720570
  H      -0.261778     -1.070416      1.151388
  H      -0.346737      0.388234      1.575594
  O       2.802835      0.139948     -0.118992
  H       2.141944      0.855586      0.044603
  H       3.366438      0.125759      0.662432
  O      -2.865382      0.031934      0.027839
  H      -2.239707     -0.231121      0.747832
  H      -3.550282     -0.644429      0.004526
18
Coordinates from ORCA-job 08_H2O_6_cage E -458.827507937306
  O       0.827972     -1.686153     -0.331415
  H       1.658152     -1.147265     -0.265578
  H       1.102596     -2.586447     -0.534443
  O      -0.709475      0.403344     -1.614982
  H      -0.249919     -0.444394     -1.477761
  H      -1.593553      0.259531     -1.204469
  O       0.604551      1.680846      0.281644
  H       0.076548      1.309743     -0.491467
  H       0.523391      2.639306      0.233842
  O      -0.781174     -0.469443      1.720372
  H      -0.261501     -1.069903      1.152272
  H      -0.347093      0.389281      1.575540
  O       2.800939      0.138261     -0.119236
  H       2.141049      0.855002      0.044942
  H       3.366061      0.124663      0.661040
  O      -2.867707      0.031450      0.028485
  H      -2.241936     -0.231611      0.748225
  H      -3.548911     -0.648592      0.003178
18
Coordinates from ORCA-job 08_H2O_6_cage E -458.827510804090
  O       0.827820     -1.685644     -0.331448
  H       1.657822     -1.145832     -0.264990
  H       1.104284     -2.585295     -0.534542
  O      -0.709402      0.403779     -1.615138
  H      -0.250224     -0.444155     -1.477828
  H      -1.593494      0.259709     -1.205314
  O       0.606223      1.681639      0.281555
  H       0.077897      1.310358     -0.491244
  H       0.525658      2.640014      0.232732
  O      -0.781613     -0.469275      1.719604
  H      -0.261305     -1.070086      1.152553
  H      -0.347778      0.389521      1.575143
  O       2.798485      0.136752     -0.118818
  H       2.139655      0.854665      0.045553
  H       3.364972      0.123243      0.660336
  O      -2.868683      0.031190      0.029893
  H      -2.242671     -0.232048      0.749265
  H      -3.547656     -0.650918      0.002878
18
Coordinates from ORCA-job 08_H2O_6_cage E -458.827513631178
  O       0.828115     -1.685483     -0.330948
  H       1.657940     -1.144961     -0.264154
  H       1.105285     -2.584841     -0.533968
  O      -0.709609      0.404271     -1.615338
  H      -0.250777     -0.443838     -1.478225
  H      -1.593668      0.259982     -1.205879
  O       0.607743      1.682858      0.281725
  H       0.079122      1.311374     -0.490708
  H       0.527288      2.641116      0.231396
  O      -0.782731     -0.469735      1.718640
  H      -0.261400     -1.070810      1.152881
  H      -0.349293      0.389257      1.574925
  O       2.796305      0.135675     -0.118744
  H       2.138551      0.854625      0.045988
  H       3.364748      0.122048      0.658830
  O      -2.868916      0.031138      0.031571
  H      -2.242672     -0.232531      0.750585
  H      -3.546040     -0.652525      0.001612
