6
Final structure: -152.745 hartree
O            0.375248171          1.265870690         -0.035596853
H           -0.405906814          1.809120475          0.028650503
H            0.058478559          0.358404331         -0.008629006
O           -0.312818349         -1.545504870          0.024521011
H            0.018360019         -1.973767749         -0.762746223
H            0.134825335         -1.970526204          0.753800566
