9
Final structure: -229.13 hartree
O           -1.466046974         -0.645259899         -0.079262909
H           -0.604052698         -1.080913422         -0.038274685
H           -2.018908259         -1.078222576          0.566088936
O            1.298635831         -0.936879379         -0.090247027
H            1.961610822         -1.194508770          0.545019563
H            1.216221279          0.024790227         -0.024199749
O            0.166552795          1.588573022          0.107040062
H           -0.628780603          1.039899842          0.061316092
H            0.084999806          2.233714955         -0.591029282
