12
Final structure: -305.518 hartree
O            1.359656790         -1.359377697          0.019514977
H            0.395173625         -1.496898369         -0.004691905
H            1.681730441         -1.861416706          0.763894132
O           -1.359378154         -1.359656625         -0.019514566
H           -1.496899209         -0.395173520          0.004691515
H           -1.861416093         -1.681731004         -0.763894108
O           -1.359656853          1.359379007          0.019514852
H           -0.395173597          1.496899247         -0.004692527
H           -1.681729380          1.861416927          0.763895206
O            1.359379033          1.359657327         -0.019514873
H            1.496899403          0.395174140          0.004692290
H            1.861416996          1.681730273         -0.763894994
