18
Final structure: -458.283 hartree
O            0.003488672          2.678708596          0.155054439
H           -0.115929662          3.202400262          0.943073343
H           -0.831718682          2.189396606          0.029153274
O           -2.321693076         -1.337508826          0.156100103
H           -1.480830484         -1.818156954          0.034410195
H           -2.720156232         -1.700872763          0.942658670
O            2.321719879          1.337471095         -0.156109366
H            2.720160258          1.700855458         -0.942669737
H            1.480861377          1.818120664         -0.034383030
O           -0.003536656         -2.678717061         -0.155065237
H            0.831665510         -2.189401525         -0.029126457
H            0.115916800         -3.202399592         -0.943084478
O            2.314938166         -1.339757847          0.164178281
H            2.828496661         -1.499141299          0.951784542
H            2.311279779         -0.371846301          0.037717492
O           -2.314917841          1.339805634         -0.164192541
H           -2.828489552          1.499154138         -0.951796929
H           -2.311250918          0.371896715         -0.037696566
