18
Final structure: -458.285 hartree
O           -1.499084265         -0.234154784          1.423479114
H           -0.602771425         -0.633852888          1.530680764
H           -2.009460996         -0.476991803          2.191704792
O           -1.737041767         -0.357115313         -1.313928253
H           -1.874152203         -0.471889978         -0.360983976
H           -2.499773726         -0.726222243         -1.752326887
O           -0.565843309          2.004241356         -0.078603957
H           -0.948633591          1.514572443          0.657294873
H           -0.981943909          1.598167687         -0.842411908
O            0.963006520         -1.189912672          1.404517783
H            0.977641976         -1.533293540          0.495963220
H            1.534154302         -0.420074065          1.332940441
O            0.976351892         -1.352225999         -1.361675514
H            0.072748502         -1.074732894         -1.545346226
H            1.473090165         -0.533577117         -1.273630543
O            1.988844572          1.066218056         -0.091794692
H            1.131735839          1.531552696         -0.098264824
H            2.663368422          1.733553059         -0.189053208
