6
Final structure: -152.882 hartree
O            0.243132055          1.299382444          0.064987604
H           -0.586867538          1.783576228          0.035685649
H           -0.006586067          0.364044358          0.021372708
O           -0.218633343         -1.576062718         -0.048720191
H            0.259500530         -1.941263897         -0.800725566
H            0.177641284         -1.986079891          0.727399796
