9
Final structure: -229.337 hartree
O           -1.476024200         -0.648289698         -0.082250010
H           -0.606816764         -1.087050674         -0.044495854
H           -2.024491904         -1.080664605          0.578350844
O            1.306746990         -0.942175999         -0.100954549
H            1.964004025         -1.203836850          0.549912450
H            1.221786097          0.026433950         -0.026086285
O            0.167940991          1.599150890          0.114500337
H           -0.633598880          1.046260469          0.064565692
H            0.090685646          2.241366516         -0.597091627
