15
Final structure: -382.244 hartree
O            2.302957003          0.149775905          0.179767795
O            0.861840946         -2.130208498         -0.161484583
O           -1.774277038         -1.493278996          0.062007721
O           -1.954861620          1.230460963         -0.060401469
O            0.575318557          2.234761549         -0.078077545
H            1.822197573         -0.698797041          0.049933197
H           -0.099284311         -1.937820267         -0.078779233
H           -1.906767089         -0.519565453          0.046281744
H           -1.054752598          1.627479935         -0.074520168
H            1.230584359          1.510704193          0.041204515
H            2.824198778          0.038329260          0.979670762
H            0.960973130         -2.623086022         -0.980929246
H           -2.256387791         -1.816023360          0.828278230
H           -2.474368157          1.778229526          0.534216039
H            0.859853259          2.714471306         -0.861252761
