18
Final structure: -458.696 hartree
O            0.121008784          1.561484783          0.869574818
H            0.967145795          1.526922182          0.359553949
H            0.273387621          2.155053235          1.610663464
O           -0.029492193         -1.364749945          0.915508164
H           -0.054408441         -0.417245674          1.118690539
H           -0.874286023         -1.538061387          0.456838202
O           -2.329596721          1.353740443         -0.432035242
H           -1.466062173          1.535850580         -0.012692173
H           -2.347195915          1.871306864         -1.241972939
O           -2.481997872         -1.416575481         -0.437314161
H           -2.551594819         -0.443128458         -0.501976854
H           -3.282567688         -1.708293129          0.008191229
O            2.423017563          1.209139059         -0.468947108
H            2.497201399          0.225131282         -0.497005765
H            2.553581626          1.510908360         -1.372328620
O            2.292020334         -1.479891154         -0.441705461
H            1.428099733         -1.569059285          0.029479166
H            2.910971991         -2.048439274          0.024711793
