18
Final structure: -458.697 hartree
O            0.963882158         -1.672060525         -0.479735017
H            1.749492025         -1.096508764         -0.346967314
H            1.293247014         -2.534238995         -0.748661917
O           -0.837449184          0.298011288         -1.617329728
H           -0.306180342         -0.504468316         -1.492640695
H           -1.687586002          0.099784987         -1.180332838
O            0.475053660          1.787865399          0.162400149
H           -0.051937499          1.360255575         -0.564459102
H            0.316037577          2.734024096          0.101444829
O           -0.580819831         -0.488172017          1.689683685
H           -0.077138470         -1.080408474          1.108450635
H           -0.229621371          0.391281645          1.481146681
O            2.781035651          0.298592374         -0.010691317
H            2.090642070          0.987893095          0.075407979
H            3.282223104          0.323091447          0.809854888
O           -2.886715004         -0.176030191          0.204942361
H           -2.199915871         -0.369602202          0.877072671
H           -3.594259702         -0.811691420          0.340603021
