6
Final structure: -152.868 hartree
O           -0.085734458          1.310334964          0.025582686
H           -0.978386311          1.624031960         -0.142375783
H           -0.142104551          0.342455309         -0.007294678
O            0.024071142         -1.588820091         -0.019114827
H            0.671072313         -1.854976481         -0.680519539
H            0.379268784         -1.889429131          0.823722142
