9
Final structure: -229.315 hartree
O           -1.472825241         -0.648283304         -0.094759766
H           -0.597126269         -1.078272107         -0.064591251
H           -2.001390930         -1.059241354          0.594612343
O            1.304910602         -0.938440271         -0.120885683
H            1.932334257         -1.212568421          0.553353975
H            1.213336805          0.030117647         -0.033307225
O            0.165552554          1.591349581          0.131737336
H           -0.632628301          1.031859806          0.069625074
H            0.098068524          2.234672423         -0.579333804
