15
Final structure: -382.21 hartree
O            2.285506900          0.146603729          0.164250711
O            0.858408973         -2.127955521         -0.143910839
O           -1.759744130         -1.480894076          0.056061492
O           -1.943583423          1.224954143         -0.075251185
O            0.571227589          2.225061404         -0.064867146
H            1.800689331         -0.705386301          0.046466270
H           -0.104989375         -1.926271087         -0.070368007
H           -1.888090854         -0.503331663          0.037735084
H           -1.039851814          1.622453897         -0.076337949
H            1.223805078          1.491832465          0.040682072
H            2.803094134          0.051485152          0.968183658
H            0.966961902         -2.611974143         -0.967009724
H           -2.232157122         -1.802359585          0.828361713
H           -2.467256373          1.753642053          0.532228423
H            0.843204185          2.707572533         -0.850309573
