18
Final structure: -458.656 hartree
O            0.112847920          1.544919322          0.877495278
H            0.961795385          1.514428892          0.364387751
H            0.252899467          2.149696503          1.611212557
O           -0.027218766         -1.374655513          0.951208481
H           -0.041192243         -0.426567910          1.156008304
H           -0.866476616         -1.533118504          0.472198586
O           -2.309877755          1.351614428         -0.441336852
H           -1.447352636          1.526142776         -0.011347700
H           -2.308242712          1.848598847         -1.263704409
O           -2.433574807         -1.404434341         -0.449789971
H           -2.505436424         -0.428401740         -0.511465641
H           -3.234255725         -1.703140316         -0.010073861
O            2.399796790          1.207585181         -0.461366905
H            2.459074485          0.218984544         -0.500960436
H            2.507307550          1.520118480         -1.363660564
O            2.247316285         -1.465580904         -0.460045920
H            1.395036233         -1.557441404          0.039517691
H            2.886786569         -2.024655340         -0.011043389
