18
Final structure: -458.656 hartree
O            1.050525990         -1.567139732         -0.553128041
H            1.801472929         -0.954805863         -0.372227810
H            1.427817502         -2.390544930         -0.873788180
O           -0.820995752          0.381076338         -1.610780253
H           -0.241550282         -0.393808202         -1.527651197
H           -1.662666245          0.103842196         -1.195718757
O            0.368918309          1.786861989          0.304359531
H           -0.122128809          1.388317227         -0.468301633
H            0.171176904          2.727124388          0.311161198
O           -0.594006144         -0.644833404          1.654487326
H           -0.043039401         -1.162113120          1.043591545
H           -0.291866041          0.267073498          1.519309825
O            2.746939944          0.457054936          0.054383756
H            2.009553270          1.093136070          0.181025913
H            3.228425732          0.437109829          0.886239326
O           -2.858038476         -0.353798629          0.118940158
H           -2.174028393         -0.556070440          0.795004624
H           -3.496521039         -1.070863143          0.143281671
