6
Final structure: -152.886 hartree
O            0.367459815          1.255651137         -0.002086277
H           -0.419820672          1.803357412         -0.009702588
H            0.052798040          0.339600948         -0.000968772
O           -0.305463539         -1.534622878          0.000808624
H            0.095546792         -1.961277230         -0.761223789
H            0.077666486         -1.959112862          0.773172801
