9
Final structure: -229.343 hartree
O           -1.455423382         -0.638728182         -0.079896192
H           -0.583294898         -1.072952655         -0.043728451
H           -2.010199398         -1.068390628          0.573911799
O            1.287588828         -0.930409270         -0.098165552
H            1.944308822         -1.200870711          0.546285891
H            1.200425885          0.038724544         -0.025255137
O            0.166690658          1.576067414          0.111010155
H           -0.633600940          1.020300698          0.061884568
H            0.093736425          2.227452790         -0.589596081
