18
Final structure: -458.712 hartree
O            0.115101994          1.543670934          0.861772569
H            0.962545662          1.508176997          0.347734565
H            0.256426328          2.138481696          1.601357120
O           -0.027195920         -1.355924254          0.911648902
H           -0.044598894         -0.410298486          1.120943594
H           -0.873092517         -1.525781242          0.451120790
O           -2.293897696          1.334392475         -0.433704761
H           -1.432239996          1.515793777         -0.007174146
H           -2.321681024          1.855529223         -1.238383359
O           -2.440115253         -1.395847908         -0.426488568
H           -2.508627331         -0.421307499         -0.496076904
H           -3.243483096         -1.697451434          0.002218738
O            2.381307230          1.194957927         -0.467542276
H            2.457087815          0.208172012         -0.496026612
H            2.517972261          1.509580132         -1.363234820
O            2.259563264         -1.457763171         -0.434368438
H            1.395962621         -1.551062057          0.043016902
H            2.888197553         -2.029226125          0.010419705
