18
Final structure: -458.712 hartree
O            0.855780814         -1.709237269         -0.436837634
H            1.674067125         -1.185128574         -0.277463167
H            1.123950781         -2.592074986         -0.699092802
O           -0.742695297          0.364964771         -1.627327137
H           -0.265465705         -0.468358165         -1.491160988
H           -1.620126760          0.221438090         -1.222138526
O            0.588120813          1.737462203          0.189000540
H            0.058024729          1.347717504         -0.561354114
H            0.507560971          2.691809169          0.134687393
O           -0.675504979         -0.450045629          1.654104035
H           -0.187973249         -1.071531950          1.090246940
H           -0.262104984          0.406954355          1.472232440
O            2.760711697          0.113705721          0.078999390
H            2.112689462          0.846340448          0.153201698
H            3.261370394          0.103604497          0.897526486
O           -2.859346680          0.002289448          0.086494116
H           -2.213714215         -0.233087930          0.787420384
H           -3.615354917         -0.579202702          0.181649946
