18
Final structure: -458.712 hartree
O           -1.605928572         -0.012305913          1.308917563
H           -0.737125096         -0.453080619          1.530505870
H           -2.199142827         -0.144161305          2.050866308
O           -1.636954192         -0.401679764         -1.399347853
H           -1.852873787         -0.404251806         -0.445419803
H           -2.391076846         -0.765112521         -1.868038841
O           -0.437411964          2.001617810         -0.314212210
H           -0.905990877          1.605396425          0.437661947
H           -0.813091988          1.533803969         -1.071918256
O            0.771815260         -1.092736966          1.584167653
H            0.836387229         -1.530216475          0.709630388
H            1.392944861         -0.356963862          1.483669238
O            0.993503924         -1.531684492         -1.126993063
H            0.116800255         -1.229795443         -1.412041767
H            1.532892469         -0.729268964         -1.072035068
O            2.033693673          0.942930657         -0.013567888
H            1.201328678          1.452931690         -0.142178262
H            2.762466811          1.558839577         -0.111104970
