12
Final structure: -305.569 hartree
O            1.369211893         -1.326787235         -0.003670193
H            0.395403574         -1.470290672         -0.009446744
H            1.701800876         -1.799838463          0.760098830
O           -1.326779304         -1.369239551          0.003664596
H           -1.470251425         -0.395425747          0.009459332
H           -1.799846202         -1.701802516         -0.760105569
O           -1.369250043          1.326796850         -0.003658328
H           -0.395434831          1.470265845         -0.009465853
H           -1.701802479          1.799872632          0.760110411
O            1.326806102          1.369230924          0.003667938
H            1.470305697          0.395421434          0.009466298
H            1.799839140          1.701799498         -0.760120720
