15
Final structure: -381.965 hartree
O            2.261776032          0.147424748          0.150466458
O            0.850830390         -2.107199954         -0.127723552
O           -1.741486909         -1.466537784          0.045617952
O           -1.925288484          1.210749195         -0.086258715
O            0.561396571          2.202785081         -0.053125781
H            1.774844982         -0.703873241          0.041283108
H           -0.111953252         -1.901923411         -0.063660748
H           -1.866243548         -0.489153122          0.025228736
H           -1.021290266          1.606185184         -0.079459682
H            1.213060624          1.468174282          0.042822143
H            2.773752072          0.057131214          0.954840901
H            0.961965337         -2.590573419         -0.947214567
H           -2.200913231         -1.778596893          0.825731150
H           -2.442124364          1.725750177          0.533798636
H            0.828899048          2.685090944         -0.836431038
