18
Final structure: -458.361 hartree
O            0.109843817          1.532019863          0.873703286
H            0.958187799          1.497576277          0.359856590
H            0.252146443          2.140070071          1.600203169
O           -0.025920895         -1.373559345          0.944249618
H           -0.038307592         -0.429116249          1.154635121
H           -0.861351848         -1.521017844          0.457024943
O           -2.288486420          1.340838786         -0.435359128
H           -1.428605494          1.513156799         -0.002405763
H           -2.273362243          1.825266884         -1.261509257
O           -2.398659680         -1.389093379         -0.455821610
H           -2.469050819         -0.413739044         -0.510828852
H           -3.191498502         -1.683857622         -0.005996348
O            2.370496313          1.196122597         -0.453027925
H            2.424138270          0.207260833         -0.494140912
H            2.460172743          1.504121646         -1.355598788
O            2.219354312         -1.448319569         -0.462609505
H            1.369372525         -1.540328658          0.040455674
H            2.860764272         -1.993309048         -0.005597313
