18
Final structure: -458.361 hartree
O           -1.286405271          0.113255656          1.593300902
H           -0.452939317         -0.438716081          1.621195374
H           -1.724074904          0.012791282          2.439032179
O           -1.924220604         -0.161010332         -1.045886071
H           -1.931668842         -0.175119938         -0.068582020
H           -2.796349360         -0.431107967         -1.335921621
O           -0.252358873          2.068509437         -0.181164915
H           -0.595667780          1.671007299          0.634198533
H           -0.828073596          1.687289621         -0.855213480
O            0.933309683         -1.254028874          1.360145090
H            0.764290872         -1.639683853          0.474387626
H            1.599763122         -0.585520279          1.151417599
O            0.539205161         -1.609172882         -1.337031504
H           -0.332500921         -1.192796124         -1.420177339
H            1.165183020         -0.873667837         -1.392986948
O            2.068115667          0.702037855         -0.442199783
H            1.295720789          1.308625023         -0.379902510
H            2.820908160          1.241570027         -0.686050130
