3
Coordinates from ORCA-job 01_H2O E -76.116285324009
  O       0.000000      0.000000      0.124348
  H       0.000000     -1.431393     -0.986748
  H       0.000000      1.431393     -0.986748
3
Coordinates from ORCA-job 01_H2O E -76.152121579056
  O       0.000000      0.000000      0.052951
  H       0.000000     -1.374208     -0.951049
  H       0.000000      1.374208     -0.951049
3
Coordinates from ORCA-job 01_H2O E -76.191322065710
  O       0.000000     -0.000000     -0.015930
  H       0.000000     -1.312536     -0.916609
  H       0.000000      1.312536     -0.916609
3
Coordinates from ORCA-job 01_H2O E -76.234452579727
  O       0.000000     -0.000000     -0.077056
  H       0.000000     -1.240498     -0.886046
  H       0.000000      1.240498     -0.886046
3
Coordinates from ORCA-job 01_H2O E -76.281144347520
  O       0.000000     -0.000000     -0.130776
  H       0.000000     -1.159662     -0.859186
  H       0.000000      1.159662     -0.859186
3
Coordinates from ORCA-job 01_H2O E -76.329886544883
  O       0.000000     -0.000000     -0.178157
  H       0.000000     -1.071997     -0.835496
  H       0.000000      1.071997     -0.835496
3
Coordinates from ORCA-job 01_H2O E -76.376448249816
  O       0.000000     -0.000000     -0.222278
  H       0.000000     -0.981035     -0.813435
  H       0.000000      0.981035     -0.813435
3
Coordinates from ORCA-job 01_H2O E -76.412166514217
  O       0.000000     -0.000000     -0.264109
  H       0.000000     -0.887853     -0.792520
  H       0.000000      0.887853     -0.792520
3
Coordinates from ORCA-job 01_H2O E -76.418920634038
  O       0.000000     -0.000000     -0.308138
  H       0.000000     -0.796817     -0.770505
  H       0.000000      0.796817     -0.770505
3
Coordinates from ORCA-job 01_H2O E -76.420473154541
  O       0.000000      0.000000     -0.303805
  H       0.000000     -0.825591     -0.772672
  H       0.000000      0.825591     -0.772672
3
Coordinates from ORCA-job 01_H2O E -76.419862021153
  O       0.000000     -0.000002     -0.308949
  H       0.000000     -0.822655     -0.770099
  H       0.000000      0.822657     -0.770100
3
Coordinates from ORCA-job 01_H2O E -76.419501872923
  O       0.000000      0.000073     -0.311517
  H       0.000000     -0.823642     -0.768836
  H       0.000000      0.823568     -0.768795
3
Coordinates from ORCA-job 01_H2O E -76.419300825981
  O       0.000000     -0.002566     -0.312716
  H       0.000000     -0.823200     -0.767504
  H       0.000000      0.825766     -0.768928
3
Coordinates from ORCA-job 01_H2O E -76.419336882187
  O       0.000000      0.000020     -0.312670
  H       0.000000     -0.824686     -0.768241
  H       0.000000      0.824666     -0.768237
3
Coordinates from ORCA-job 01_H2O E -76.419384015085
  O       0.000000      0.000000     -0.312341
  H       0.000000     -0.824432     -0.768400
  H       0.000000      0.824432     -0.768407
