9
Coordinates from ORCA-job 03_H2O_3 E -229.307505421185
  O      -1.476811     -0.647642     -0.082126
  H      -0.613415     -1.087457     -0.037065
  H      -2.026236     -1.086841      0.568502
  O       1.305672     -0.945117     -0.091536
  H       1.973931     -1.196903      0.547209
  H       1.226840      0.019839     -0.021857
  O       0.169678      1.599733      0.108456
  H      -0.629586      1.051269      0.060063
  H       0.080159      2.244313     -0.595195
9
Coordinates from ORCA-job 03_H2O_3 E -229.305699063643
  O      -1.492456     -0.683019     -0.068643
  H      -0.618444     -1.100526     -0.025363
  H      -2.061068     -1.100760      0.567749
  O       1.338923     -0.948077     -0.080467
  H       1.993348     -1.242915      0.536107
  H       1.243348      0.022794     -0.019088
  O       0.148561      1.638939      0.090519
  H      -0.641902      1.069383      0.049481
  H       0.099921      2.295374     -0.593845
9
Coordinates from ORCA-job 03_H2O_3 E -229.302006165150
  O      -1.503832     -0.717822     -0.053851
  H      -0.622258     -1.107825     -0.015753
  H      -2.096100     -1.117884      0.568718
  O       1.366608     -0.941509     -0.071434
  H       2.009858     -1.287450      0.526596
  H       1.255144      0.023439     -0.015626
  O       0.126754      1.670216      0.072216
  H      -0.647740      1.084857      0.038112
  H       0.121797      2.345172     -0.592527
9
Coordinates from ORCA-job 03_H2O_3 E -229.296922945551
  O      -1.518708     -0.752827     -0.039248
  H      -0.628144     -1.117775     -0.006723
  H      -2.132149     -1.140802      0.570774
  O       1.395035     -0.937392     -0.062616
  H       2.026503     -1.333728      0.518015
  H       1.272841      0.022560     -0.010944
  O       0.107477      1.705645      0.053875
  H      -0.652754      1.106936      0.025857
  H       0.140131      2.398578     -0.592539
9
Coordinates from ORCA-job 03_H2O_3 E -229.291103018416
  O      -1.533818     -0.787881     -0.024970
  H      -0.636183     -1.130337      0.002333
  H      -2.163116     -1.168676      0.572891
  O       1.421496     -0.937053     -0.053191
  H       2.038113     -1.380036      0.509241
  H       1.295924      0.019893     -0.004820
  O       0.091168      1.745751      0.035362
  H      -0.657422      1.136584      0.012676
  H       0.154070      2.452950     -0.593070
9
Coordinates from ORCA-job 03_H2O_3 E -229.285539761058
  O      -1.549307     -0.822257     -0.011722
  H      -0.646264     -1.145824      0.010880
  H      -2.189440     -1.200830      0.575442
  O       1.444940     -0.940280     -0.044234
  H       2.045902     -1.424139      0.501404
  H       1.323610      0.014960      0.002167
  O       0.078420      1.788953      0.017841
  H      -0.661739      1.173028     -0.000590
  H       0.164110      2.507583     -0.594737
9
Coordinates from ORCA-job 03_H2O_3 E -229.280743734314
  O      -1.564553     -0.855768      0.000422
  H      -0.657533     -1.163616      0.018741
  H      -2.211369     -1.236359      0.578478
  O       1.464654     -0.946624     -0.036230
  H       2.049997     -1.464701      0.494770
  H       1.354111      0.007863      0.009754
  O       0.069336      1.834031      0.001679
  H      -0.665426      1.214562     -0.013658
  H       0.171015      2.561806     -0.597505
9
Coordinates from ORCA-job 03_H2O_3 E -229.276854544202
  O      -1.579904     -0.888488      0.011809
  H      -0.669543     -1.182982      0.026033
  H      -2.230255     -1.274376      0.581840
  O       1.480953     -0.955156     -0.029401
  H       2.051691     -1.501309      0.489269
  H       1.386017     -0.000791      0.017768
  O       0.063661      1.879820     -0.013278
  H      -0.668291      1.259096     -0.026605
  H       0.175903      2.615380     -0.600983
9
Coordinates from ORCA-job 03_H2O_3 E -229.273841485848
  O      -1.595277     -0.920199      0.022775
  H      -0.681994     -1.203050      0.032943
  H      -2.246966     -1.314091      0.585299
  O       1.494315     -0.965301     -0.023571
  H       2.051941     -1.534439      0.484532
  H       1.418655     -0.010672      0.026331
  O       0.060773      1.925450     -0.027403
  H      -0.670229      1.305240     -0.039691
  H       0.179014      2.668257     -0.604763
9
Coordinates from ORCA-job 03_H2O_3 E -229.271419741985
  O      -1.609935     -0.950943      0.034071
  H      -0.694021     -1.222884      0.040019
  H      -2.261750     -1.355109      0.588465
  O       1.504836     -0.975943     -0.018036
  H       2.050160     -1.565729      0.479396
  H       1.451638     -0.021017      0.036036
  O       0.059871      1.970335     -0.041677
  H      -0.671287      1.351585     -0.053639
  H       0.180720      2.720897     -0.608183
9
Coordinates from ORCA-job 03_H2O_3 E -229.270692022759
  O      -1.624239     -0.977431      0.045619
  H      -0.705685     -1.241624      0.047293
  H      -2.274255     -1.396894      0.590428
  O       1.509780     -0.988683     -0.013511
  H       2.048340     -1.592107      0.474614
  H       1.486111     -0.033170      0.047196
  O       0.063592      2.011803     -0.055915
  H      -0.670433      1.397021     -0.068777
  H       0.177022      2.772279     -0.610497
9
Coordinates from ORCA-job 03_H2O_3 E -229.275152446114
  O      -1.607952     -0.981863      0.057716
  H      -0.683946     -1.238619      0.053964
  H      -2.242728     -1.433424      0.588154
  O       1.454616     -0.982222     -0.013149
  H       1.993649     -1.585826      0.463254
  H       1.489526     -0.022925      0.062346
  O       0.089108      2.009403     -0.067266
  H      -0.659609      1.404577     -0.085995
  H       0.177568      2.782092     -0.602573
9
Coordinates from ORCA-job 03_H2O_3 E -229.270595632504
  O      -1.631029     -0.984439      0.048363
  H      -0.712433     -1.247905      0.049210
  H      -2.280337     -1.407078      0.590755
  O       1.514483     -0.993559     -0.012528
  H       2.052871     -1.597236      0.474053
  H       1.496749     -0.037614      0.049549
  O       0.064980      2.023451     -0.059511
  H      -0.670298      1.409491     -0.072397
  H       0.175244      2.786085     -0.611043
9
Coordinates from ORCA-job 03_H2O_3 E -229.267572763365
  O      -1.651545     -0.986183      0.041764
  H      -0.737250     -1.256601      0.045995
  H      -2.309374     -1.387585      0.591946
  O       1.558987     -1.002414     -0.012403
  H       2.099756     -1.600160      0.481747
  H       1.504094     -0.049367      0.040233
  O       0.050044      2.033198     -0.053999
  H      -0.677599      1.412846     -0.062748
  H       0.173120      2.787460     -0.616083
9
Coordinates from ORCA-job 03_H2O_3 E -229.264164955599
  O      -1.683727     -0.991720      0.034832
  H      -0.774744     -1.272492      0.042826
  H      -2.349270     -1.368320      0.593429
  O       1.617569     -1.015369     -0.012220
  H       2.161769     -1.602090      0.490893
  H       1.521051     -0.066420      0.029843
  O       0.034063      2.050609     -0.048769
  H      -0.686442      1.422947     -0.052468
  H       0.169964      2.794048     -0.621915
9
Coordinates from ORCA-job 03_H2O_3 E -229.261511343671
  O      -1.719065     -1.001198      0.029822
  H      -0.815316     -1.292179      0.040711
  H      -2.388966     -1.358214      0.595467
  O       1.672332     -1.027581     -0.012338
  H       2.219861     -1.602891      0.499103
  H       1.544077     -0.083241      0.021451
  O       0.022532      2.071472     -0.045657
  H      -0.693260      1.439080     -0.044941
  H       0.168038      2.805945     -0.627168
9
Coordinates from ORCA-job 03_H2O_3 E -229.259459509741
  O      -1.756261     -1.014054      0.026287
  H      -0.857226     -1.314484      0.039406
  H      -2.428386     -1.355924      0.598175
  O       1.723125     -1.038468     -0.012721
  H       2.273471     -1.603247      0.506499
  H       1.570818     -0.098599      0.014529
  O       0.014846      2.094637     -0.044078
  H      -0.697898      1.459477     -0.039470
  H       0.167742      2.821855     -0.632177
9
Coordinates from ORCA-job 03_H2O_3 E -229.257899879837
  O      -1.794025     -1.030831      0.024797
  H      -0.898708     -1.338881      0.039262
  H      -2.466966     -1.362549      0.601374
  O       1.768952     -1.048663     -0.013010
  H       2.320815     -1.605276      0.512694
  H       1.601119     -0.112298      0.009531
  O       0.010816      2.121218     -0.044559
  H      -0.700329      1.485017     -0.036610
  H       0.168557      2.843457     -0.637027
9
Coordinates from ORCA-job 03_H2O_3 E -229.256704591130
  O      -1.830842     -1.051032      0.025384
  H      -0.938107     -1.364469      0.040282
  H      -2.503917     -1.377179      0.604803
  O       1.809502     -1.058942     -0.012970
  H       2.361330     -1.610393      0.517707
  H       1.634042     -0.124650      0.006455
  O       0.009591      2.151447     -0.047082
  H      -0.700968      1.515371     -0.036290
  H       0.169601      2.871040     -0.641839
9
Coordinates from ORCA-job 03_H2O_3 E -229.255808895954
  O      -1.865274     -1.074334      0.028285
  H      -0.973867     -1.390365      0.042551
  H      -2.538116     -1.399789      0.608237
  O       1.843825     -1.069944     -0.012394
  H       2.393909     -1.619823      0.521412
  H       1.668948     -0.136005      0.005571
  O       0.010725      2.185639     -0.051879
  H      -0.700074      1.550556     -0.038779
  H       0.170155      2.905259     -0.646553
9
Coordinates from ORCA-job 03_H2O_3 E -229.256657747193
  O      -1.865691     -1.073022      0.027512
  H      -0.973891     -1.391547      0.041844
  H      -2.537230     -1.399881      0.608501
  O       1.842294     -1.071096     -0.013813
  H       2.392643     -1.617744      0.523616
  H       1.670406     -0.135533      0.004374
  O       0.012627      2.185313     -0.050645
  H      -0.698976      1.550454     -0.037524
  H       0.168050      2.904250     -0.647412
9
Coordinates from ORCA-job 03_H2O_3 E -229.264015687459
  O      -1.861485     -1.065001      0.021505
  H      -0.975290     -1.402964      0.036488
  H      -2.521256     -1.404553      0.609770
  O       1.819754     -1.078414     -0.025893
  H       2.369279     -1.594121      0.542096
  H       1.680868     -0.134591     -0.006335
  O       0.033182      2.183454     -0.040032
  H      -0.684102      1.553101     -0.026455
  H       0.149284      2.894282     -0.654694
9
Coordinates from ORCA-job 03_H2O_3 E -229.264117741912
  O      -1.860223     -1.066520      0.021678
  H      -0.974091     -1.404783      0.036724
  H      -2.520539     -1.405061      0.609336
  O       1.817467     -1.077766     -0.026214
  H       2.366324     -1.592912      0.542607
  H       1.679675     -0.135033     -0.007096
  O       0.034615      2.184486     -0.039513
  H      -0.681705      1.554224     -0.025632
  H       0.148708      2.894559     -0.655440
9
Coordinates from ORCA-job 03_H2O_3 E -229.264480802354
  O      -1.849793     -1.077422      0.023031
  H      -0.964517     -1.415805      0.038301
  H      -2.514627     -1.411327      0.607768
  O       1.801965     -1.076925     -0.027440
  H       2.346685     -1.591397      0.545710
  H       1.670493     -0.135675     -0.010998
  O       0.043059      2.195309     -0.037756
  H      -0.668801      1.562898     -0.021897
  H       0.145768      2.901538     -0.660267
9
Coordinates from ORCA-job 03_H2O_3 E -229.264966855351
  O      -1.821429     -1.114142      0.029739
  H      -0.933684     -1.448180      0.044738
  H      -2.496766     -1.442205      0.605293
  O       1.751907     -1.074306     -0.029126
  H       2.285471     -1.592803      0.551155
  H       1.642150     -0.131737     -0.019118
  O       0.069791      2.231344     -0.038217
  H      -0.633657      1.591848     -0.016781
  H       0.146450      2.931373     -0.671232
9
Coordinates from ORCA-job 03_H2O_3 E -229.265000659791
  O      -1.794886     -1.157341      0.039110
  H      -0.901859     -1.481185      0.053095
  H      -2.476929     -1.488286      0.605292
  O       1.693759     -1.067692     -0.029226
  H       2.217469     -1.594752      0.552597
  H       1.609783     -0.120970     -0.024636
  O       0.100701      2.268647     -0.044062
  H      -0.598152      1.624091     -0.017156
  H       0.160346      2.968681     -0.678563
9
Coordinates from ORCA-job 03_H2O_3 E -229.264912487783
  O      -1.791661     -1.172601      0.042263
  H      -0.895311     -1.490543      0.056131
  H      -2.472106     -1.509583      0.607267
  O       1.673550     -1.059850     -0.029154
  H       2.197414     -1.589178      0.550794
  H       1.596183     -0.111469     -0.025823
  O       0.113482      2.275071     -0.047695
  H      -0.587285      1.630964     -0.019250
  H       0.175966      2.978384     -0.678081
9
Coordinates from ORCA-job 03_H2O_3 E -229.264610331318
  O      -1.798006     -1.192046      0.046705
  H      -0.895811     -1.497677      0.060615
  H      -2.470578     -1.545095      0.612186
  O       1.648604     -1.040006     -0.028712
  H       2.179057     -1.571297      0.543599
  H       1.576725     -0.088759     -0.025379
  O       0.133019      2.270350     -0.054939
  H      -0.575867      1.632346     -0.025534
  H       0.213089      2.983377     -0.672091
9
Coordinates from ORCA-job 03_H2O_3 E -229.265024266013
  O      -1.809560     -1.175979      0.037512
  H      -0.916189     -1.505158      0.053571
  H      -2.489423     -1.502968      0.609348
  O       1.700953     -1.069943     -0.031781
  H       2.224704     -1.586320      0.560007
  H       1.610536     -0.123070     -0.032633
  O       0.108847      2.289766     -0.043674
  H      -0.587992      1.639905     -0.012694
  H       0.168356      2.984961     -0.683204
9
Coordinates from ORCA-job 03_H2O_3 E -229.264673644251
  O      -1.835885     -1.176459      0.032544
  H      -0.949404     -1.520896      0.049839
  H      -2.516910     -1.489119      0.610868
  O       1.752527     -1.093620     -0.033079
  H       2.272031     -1.598735      0.571315
  H       1.647542     -0.148677     -0.037159
  O       0.092051      2.316720     -0.040240
  H      -0.597449      1.659625     -0.007521
  H       0.145729      3.002355     -0.690116
9
Coordinates from ORCA-job 03_H2O_3 E -229.263882318922
  O      -1.859683     -1.167475      0.028721
  H      -0.980007     -1.524659      0.045517
  H      -2.542172     -1.468326      0.611293
  O       1.809692     -1.120612     -0.032163
  H       2.324265     -1.621710      0.578986
  H       1.691782     -0.177946     -0.036422
  O       0.065822      2.338230     -0.038762
  H      -0.617123      1.675456     -0.006396
  H       0.117656      3.018236     -0.694324
9
Coordinates from ORCA-job 03_H2O_3 E -229.263316951460
  O      -1.867524     -1.141815      0.023723
  H      -0.996166     -1.514224      0.038815
  H      -2.554861     -1.426315      0.608171
  O       1.866475     -1.155863     -0.030508
  H       2.372714     -1.656379      0.587446
  H       1.736950     -0.216195     -0.033376
  O       0.027279      2.353614     -0.034568
  H      -0.645614      1.682907     -0.004162
  H       0.070978      3.025464     -0.699091
9
Coordinates from ORCA-job 03_H2O_3 E -229.263654386749
  O      -1.860441     -1.167941      0.030138
  H      -0.983126     -1.528234      0.045340
  H      -2.545314     -1.467212      0.610589
  O       1.820355     -1.132714     -0.031385
  H       2.330081     -1.636057      0.581515
  H       1.707859     -0.189573     -0.035076
  O       0.057789      2.352818     -0.040688
  H      -0.621637      1.686901     -0.007859
  H       0.104667      3.033206     -0.696122
9
Coordinates from ORCA-job 03_H2O_3 E -229.263431281158
  O      -1.868086     -1.143682      0.023404
  H      -0.999546     -1.521056      0.037767
  H      -2.556112     -1.425060      0.608594
  O       1.875935     -1.168662     -0.030898
  H       2.376957     -1.666747      0.592901
  H       1.748966     -0.228931     -0.034810
  O       0.020886      2.370546     -0.034934
  H      -0.647894      1.694809     -0.003490
  H       0.059126      3.039976     -0.702083
9
Coordinates from ORCA-job 03_H2O_3 E -229.263187855176
  O      -1.873205     -1.120764      0.017482
  H      -1.012978     -1.514638      0.030303
  H      -2.563439     -1.386110      0.607105
  O       1.928392     -1.206518     -0.030197
  H       2.419237     -1.700098      0.604683
  H       1.789544     -0.269714     -0.034372
  O      -0.017209      2.391850     -0.030646
  H      -0.674095      1.705614     -0.000228
  H       0.013985      3.051574     -0.707679
9
Coordinates from ORCA-job 03_H2O_3 E -229.262952335706
  O      -1.869626     -1.094796      0.012411
  H      -1.017820     -1.504816      0.022332
  H      -2.561547     -1.346633      0.605648
  O       1.975007     -1.248037     -0.029073
  H       2.452587     -1.739816      0.616885
  H       1.828836     -0.313720     -0.032831
  O      -0.059691      2.415393     -0.027861
  H      -0.702670      1.716460      0.001695
  H      -0.034844      3.067160     -0.712755
9
Coordinates from ORCA-job 03_H2O_3 E -229.262946335992
  O      -1.861183     -1.089632      0.012127
  H      -1.011278     -1.504039      0.020202
  H      -2.552471     -1.341424      0.606255
  O       1.978233     -1.260636     -0.029022
  H       2.448818     -1.753332      0.621340
  H       1.835718     -0.326062     -0.032722
  O      -0.071343      2.426680     -0.028994
  H      -0.708358      1.721369      0.001347
  H      -0.047905      3.078271     -0.714083
9
Coordinates from ORCA-job 03_H2O_3 E -229.262861492141
  O      -1.808696     -1.082922      0.016691
  H      -0.961598     -1.507201      0.015144
  H      -2.493860     -1.351370      0.611766
  O       1.947314     -1.296655     -0.029404
  H       2.385586     -1.799819      0.635307
  H       1.838422     -0.357565     -0.031861
  O      -0.102144      2.472542     -0.040533
  H      -0.714722      1.740468     -0.004345
  H      -0.080070      3.133717     -0.716314
9
Coordinates from ORCA-job 03_H2O_3 E -229.262828289482
  O      -1.803066     -1.105572      0.020218
  H      -0.950607     -1.524567      0.017739
  H      -2.478437     -1.392549      0.619211
  O       1.906512     -1.274458     -0.032398
  H       2.343293     -1.776370      0.634869
  H       1.807940     -0.332554     -0.037000
  O      -0.079000      2.474340     -0.046955
  H      -0.692730      1.738334     -0.006104
  H      -0.043673      3.144591     -0.713128
9
Coordinates from ORCA-job 03_H2O_3 E -229.262154321705
  O      -1.824748     -1.159236      0.028136
  H      -0.963474     -1.565513      0.025867
  H      -2.487124     -1.471677      0.630457
  O       1.867614     -1.239672     -0.035551
  H       2.309734     -1.738265      0.631100
  H       1.781274     -0.293848     -0.043820
  O      -0.035002      2.489629     -0.059030
  H      -0.657696      1.756036     -0.011474
  H       0.019654      3.173740     -0.709233
9
Coordinates from ORCA-job 03_H2O_3 E -229.261727017518
  O      -1.829119     -1.194443      0.033132
  H      -0.959043     -1.587613      0.032065
  H      -2.482863     -1.524086      0.636853
  O       1.818357     -1.197497     -0.039009
  H       2.268128     -1.694044      0.624753
  H       1.736425     -0.249431     -0.050521
  O       0.005744      2.478824     -0.064132
  H      -0.624721      1.749071     -0.011836
  H       0.077324      3.170412     -0.704855
9
Coordinates from ORCA-job 03_H2O_3 E -229.261155288195
  O      -1.852104     -1.244327      0.039493
  H      -0.973368     -1.623346      0.040256
  H      -2.495001     -1.593019      0.645343
  O       1.781021     -1.156288     -0.042663
  H       2.240827     -1.646649      0.619248
  H       1.703718     -0.205680     -0.058409
  O       0.052189      2.481565     -0.071823
  H      -0.589083      1.757838     -0.013829
  H       0.142033      3.181101     -0.701165
9
Coordinates from ORCA-job 03_H2O_3 E -229.260605419400
  O      -1.877050     -1.290591      0.043964
  H      -0.989752     -1.656198      0.047767
  H      -2.509043     -1.654879      0.653234
  O       1.747477     -1.112570     -0.046776
  H       2.219682     -1.594004      0.613648
  H       1.668048     -0.160333     -0.067235
  O       0.097831      2.477356     -0.077042
  H      -0.554549      1.760455     -0.013696
  H       0.207588      3.181959     -0.697412
9
Coordinates from ORCA-job 03_H2O_3 E -229.259703028442
  O      -1.917210     -1.342793      0.050065
  H      -1.024312     -1.697621      0.056008
  H      -2.539612     -1.720936      0.661534
  O       1.741045     -1.086692     -0.049010
  H       2.222302     -1.560392      0.610465
  H       1.663135     -0.132847     -0.073483
  O       0.133985      2.497687     -0.085752
  H      -0.528225      1.786628     -0.017522
  H       0.259124      3.208159     -0.695855
9
Coordinates from ORCA-job 03_H2O_3 E -229.259910177189
  O      -1.903289     -1.331712      0.052413
  H      -1.018999     -1.696113      0.053480
  H      -2.535487     -1.701611      0.657701
  O       1.765368     -1.131532     -0.045367
  H       2.229072     -1.613713      0.618525
  H       1.705531     -0.177511     -0.067630
  O       0.105364      2.537753     -0.088435
  H      -0.545162      1.818051     -0.021779
  H       0.207835      3.247581     -0.702457
9
Coordinates from ORCA-job 03_H2O_3 E -229.258978364101
  O      -1.933331     -1.387551      0.059866
  H      -1.044416     -1.736426      0.062918
  H      -2.557755     -1.771543      0.664802
  O       1.742193     -1.096780     -0.047672
  H       2.215013     -1.573089      0.612942
  H       1.684779     -0.140438     -0.074521
  O       0.148779      2.551785     -0.096537
  H      -0.510717      1.838266     -0.024585
  H       0.265688      3.266970     -0.700763
9
Coordinates from ORCA-job 03_H2O_3 E -229.259073837312
  O      -1.949287     -1.404596      0.064615
  H      -1.064543     -1.757746      0.064881
  H      -2.575679     -1.789953      0.666154
  O       1.765509     -1.121553     -0.046424
  H       2.230000     -1.597636      0.618738
  H       1.724805     -0.165082     -0.073103
  O       0.143908      2.595702     -0.103023
  H      -0.512975      1.878889     -0.030312
  H       0.248494      3.313170     -0.705074
9
Coordinates from ORCA-job 03_H2O_3 E -229.259576834668
  O      -1.933025     -1.411251      0.070411
  H      -1.041410     -1.762737      0.066059
  H      -2.568062     -1.795708      0.662756
  O       1.744607     -1.123342     -0.046580
  H       2.200217     -1.609799      0.619322
  H       1.721444     -0.167737     -0.072469
  O       0.148411      2.606507     -0.103179
  H      -0.500109      1.891368     -0.029868
  H       0.238160      3.323893     -0.710002
9
Coordinates from ORCA-job 03_H2O_3 E -229.260383482212
  O      -1.916862     -1.417567      0.075874
  H      -1.021453     -1.762646      0.065894
  H      -2.557613     -1.806158      0.660311
  O       1.720211     -1.118484     -0.047382
  H       2.166671     -1.615963      0.618710
  H       1.715872     -0.165021     -0.071250
  O       0.158097      2.611670     -0.101826
  H      -0.486661      1.899520     -0.028043
  H       0.231969      3.325844     -0.715838
9
Coordinates from ORCA-job 03_H2O_3 E -229.260678472799
  O      -1.912303     -1.421419      0.078233
  H      -1.017758     -1.757795      0.063587
  H      -2.551658     -1.815044      0.660573
  O       1.712613     -1.113103     -0.047648
  H       2.150914     -1.618340      0.617397
  H       1.714012     -0.160152     -0.069484
  O       0.163124      2.612383     -0.099334
  H      -0.480482      1.903458     -0.025442
  H       0.231770      3.321204     -0.721431
