12
Coordinates from ORCA-job 04_H2O_4 E -305.754910405935
  O       1.372659     -1.372658      0.015734
  H       0.406261     -1.511316     -0.008945
  H       1.683553     -1.872433      0.772059
  O      -1.372658     -1.372658     -0.015734
  H      -1.511316     -0.406261      0.008945
  H      -1.872433     -1.683553     -0.772059
  O      -1.372658      1.372659      0.015734
  H      -0.406261      1.511317     -0.008945
  H      -1.683553      1.872433      0.772059
  O       1.372659      1.372659     -0.015734
  H       1.511317      0.406261      0.008945
  H       1.872433      1.683553     -0.772059
12
Coordinates from ORCA-job 04_H2O_4 E -305.753876586897
  O       1.374112     -1.397684      0.049647
  H       0.401919     -1.524364      0.005416
  H       1.704222     -1.869154      0.816967
  O      -1.397684     -1.374111     -0.049647
  H      -1.524364     -0.401919     -0.005416
  H      -1.869154     -1.704222     -0.816967
  O      -1.374111      1.397685      0.049647
  H      -0.401919      1.524365      0.005416
  H      -1.704222      1.869155      0.816967
  O       1.397685      1.374112     -0.049647
  H       1.524365      0.401919     -0.005416
  H       1.869155      1.704222     -0.816967
12
Coordinates from ORCA-job 04_H2O_4 E -305.751445799017
  O       1.369097     -1.416613      0.086254
  H       0.397287     -1.532096      0.020126
  H       1.715438     -1.856114      0.864734
  O      -1.416613     -1.369096     -0.086254
  H      -1.532096     -0.397287     -0.020126
  H      -1.856114     -1.715438     -0.864734
  O      -1.369097      1.416614      0.086254
  H      -0.397287      1.532098      0.020126
  H      -1.715438      1.856115      0.864734
  O       1.416614      1.369097     -0.086254
  H       1.532097      0.397287     -0.020126
  H       1.856115      1.715438     -0.864734
12
Coordinates from ORCA-job 04_H2O_4 E -305.748259845218
  O       1.363365     -1.431977      0.124686
  H       0.394009     -1.539137      0.035195
  H       1.720101     -1.839606      0.915030
  O      -1.431977     -1.363365     -0.124686
  H      -1.539137     -0.394009     -0.035195
  H      -1.839606     -1.720101     -0.915030
  O      -1.363365      1.431978      0.124686
  H      -0.394009      1.539139      0.035195
  H      -1.720101      1.839606      0.915030
  O       1.431978      1.363365     -0.124686
  H       1.539138      0.394009     -0.035195
  H       1.839607      1.720101     -0.915030
12
Coordinates from ORCA-job 04_H2O_4 E -305.744754162372
  O       1.357309     -1.443741      0.164602
  H       0.391644     -1.545433      0.050717
  H       1.719043     -1.820550      0.967264
  O      -1.443741     -1.357309     -0.164603
  H      -1.545433     -0.391644     -0.050717
  H      -1.820550     -1.719044     -0.967264
  O      -1.357309      1.443742      0.164603
  H      -0.391644      1.545434      0.050717
  H      -1.719044      1.820551      0.967264
  O       1.443742      1.357309     -0.164602
  H       1.545434      0.391644     -0.050717
  H       1.820551      1.719043     -0.967264
12
Coordinates from ORCA-job 04_H2O_4 E -305.741238183399
  O       1.350932     -1.451990      0.205657
  H       0.389930     -1.550806      0.066689
  H       1.712808     -1.799312      1.020902
  O      -1.451990     -1.350932     -0.205657
  H      -1.550806     -0.389930     -0.066689
  H      -1.799312     -1.712808     -1.020902
  O      -1.350932      1.451991      0.205657
  H      -0.389930      1.550807      0.066689
  H      -1.712808      1.799313      1.020902
  O       1.451991      1.350932     -0.205657
  H       1.550807      0.389930     -0.066689
  H       1.799313      1.712808     -1.020903
12
Coordinates from ORCA-job 04_H2O_4 E -305.737871208235
  O       1.344147     -1.456865      0.247564
  H       0.388685     -1.555105      0.083071
  H       1.701834     -1.776083      1.075546
  O      -1.456865     -1.344147     -0.247564
  H      -1.555105     -0.388685     -0.083071
  H      -1.776082     -1.701834     -1.075546
  O      -1.344147      1.456866      0.247564
  H      -0.388685      1.555106      0.083071
  H      -1.701834      1.776083      1.075546
  O       1.456866      1.344147     -0.247564
  H       1.555106      0.388685     -0.083071
  H       1.776083      1.701834     -1.075546
12
Coordinates from ORCA-job 04_H2O_4 E -305.734756251402
  O       1.336934     -1.458591      0.290115
  H       0.387786     -1.558251      0.099809
  H       1.686559     -1.751062      1.130872
  O      -1.458591     -1.336934     -0.290115
  H      -1.558251     -0.387785     -0.099809
  H      -1.751062     -1.686559     -1.130872
  O      -1.336934      1.458592      0.290115
  H      -0.387785      1.558252      0.099809
  H      -1.686559      1.751063      1.130872
  O       1.458592      1.336934     -0.290115
  H       1.558252      0.387786     -0.099809
  H       1.751063      1.686559     -1.130872
12
Coordinates from ORCA-job 04_H2O_4 E -305.731938494716
  O       1.329116     -1.457360      0.333148
  H       0.387080     -1.560140      0.116861
  H       1.667362     -1.724259      1.186574
  O      -1.457360     -1.329116     -0.333148
  H      -1.560140     -0.387080     -0.116861
  H      -1.724259     -1.667362     -1.186574
  O      -1.329116      1.457361      0.333148
  H      -0.387080      1.560141      0.116861
  H      -1.667362      1.724260      1.186574
  O       1.457361      1.329116     -0.333148
  H       1.560141      0.387080     -0.116861
  H       1.724260      1.667362     -1.186574
12
Coordinates from ORCA-job 04_H2O_4 E -305.729429335099
  O       1.320297     -1.453113      0.376517
  H       0.386350     -1.560543      0.134189
  H       1.644350     -1.695362      1.242351
  O      -1.453112     -1.320296     -0.376517
  H      -1.560543     -0.386350     -0.134190
  H      -1.695362     -1.644350     -1.242351
  O      -1.320297      1.453113      0.376517
  H      -0.386350      1.560544      0.134189
  H      -1.644350      1.695363      1.242351
  O       1.453114      1.320297     -0.376517
  H       1.560544      0.386350     -0.134189
  H       1.695363      1.644350     -1.242351
12
Coordinates from ORCA-job 04_H2O_4 E -305.727196815885
  O       1.310558     -1.446178      0.420135
  H       0.385559     -1.559622      0.151767
  H       1.617950     -1.664571      1.297990
  O      -1.446178     -1.310558     -0.420136
  H      -1.559623     -0.385559     -0.151767
  H      -1.664571     -1.617950     -1.297989
  O      -1.310558      1.446179      0.420135
  H      -0.385559      1.559623      0.151767
  H      -1.617951      1.664572      1.297989
  O       1.446179      1.310558     -0.420135
  H       1.559623      0.385559     -0.151767
  H       1.664572      1.617950     -1.297990
12
Coordinates from ORCA-job 04_H2O_4 E -305.725159342717
  O       1.299904     -1.436795      0.463957
  H       0.384695     -1.557478      0.169589
  H       1.588487     -1.632014      1.353295
  O      -1.436795     -1.299903     -0.463957
  H      -1.557478     -0.384695     -0.169589
  H      -1.632014     -1.588487     -1.353295
  O      -1.299903      1.436796      0.463957
  H      -0.384695      1.557479      0.169589
  H      -1.588487      1.632014      1.353295
  O       1.436796      1.299904     -0.463957
  H       1.557479      0.384695     -0.169589
  H       1.632015      1.588487     -1.353295
12
Coordinates from ORCA-job 04_H2O_4 E -305.723288769143
  O       1.288205     -1.424987      0.507909
  H       0.383699     -1.554057      0.187646
  H       1.556048     -1.597619      1.408081
  O      -1.424986     -1.288205     -0.507909
  H      -1.554057     -0.383698     -0.187646
  H      -1.597619     -1.556048     -1.408081
  O      -1.288205      1.424987      0.507909
  H      -0.383698      1.554058      0.187646
  H      -1.556048      1.597620      1.408081
  O       1.424988      1.288205     -0.507909
  H       1.554058      0.383699     -0.187646
  H       1.597620      1.556048     -1.408081
12
Coordinates from ORCA-job 04_H2O_4 E -305.721524886474
  O       1.275171     -1.410690      0.551913
  H       0.382341     -1.549123      0.205920
  H       1.520709     -1.561096      1.462129
  O      -1.410690     -1.275170     -0.551913
  H      -1.549123     -0.382341     -0.205920
  H      -1.561096     -1.520709     -1.462129
  O      -1.275170      1.410691      0.551913
  H      -0.382341      1.549123      0.205920
  H      -1.520709      1.561097      1.462128
  O       1.410691      1.275171     -0.551913
  H       1.549123      0.382341     -0.205920
  H       1.561097      1.520709     -1.462129
12
Coordinates from ORCA-job 04_H2O_4 E -305.719779451218
  O       1.260753     -1.394125      0.595970
  H       0.380512     -1.542749      0.224419
  H       1.482805     -1.522441      1.515313
  O      -1.394125     -1.260753     -0.595970
  H      -1.542749     -0.380511     -0.224419
  H      -1.522440     -1.482805     -1.515312
  O      -1.260753      1.394126      0.595970
  H      -0.380511      1.542750      0.224419
  H      -1.482805      1.522441      1.515312
  O       1.394126      1.260753     -0.595970
  H       1.542750      0.380512     -0.224419
  H       1.522441      1.482805     -1.515313
12
Coordinates from ORCA-job 04_H2O_4 E -305.718081387820
  O       1.244507     -1.374848      0.639859
  H       0.378154     -1.534220      0.243105
  H       1.442008     -1.481405      1.567332
  O      -1.374848     -1.244507     -0.639859
  H      -1.534220     -0.378154     -0.243105
  H      -1.481405     -1.442008     -1.567332
  O      -1.244507      1.374849      0.639859
  H      -0.378154      1.534221      0.243105
  H      -1.442008      1.481406      1.567332
  O       1.374849      1.244507     -0.639859
  H       1.534220      0.378154     -0.243105
  H       1.481406      1.442008     -1.567332
12
Coordinates from ORCA-job 04_H2O_4 E -305.715316759122
  O       1.232910     -1.363585      0.683499
  H       0.376501     -1.535953      0.261919
  H       1.410055     -1.445027      1.617537
  O      -1.363585     -1.232908     -0.683499
  H      -1.535954     -0.376500     -0.261919
  H      -1.445027     -1.410053     -1.617537
  O      -1.232909      1.363585      0.683499
  H      -0.376501      1.535954      0.261918
  H      -1.410055      1.445027      1.617536
  O       1.363586      1.232909     -0.683499
  H       1.535955      0.376500     -0.261918
  H       1.445028      1.410054     -1.617537
12
Coordinates from ORCA-job 04_H2O_4 E -305.713927836512
  O       1.212748     -1.338586      0.726364
  H       0.374013     -1.522655      0.280995
  H       1.362736     -1.399736      1.666372
  O      -1.338586     -1.212747     -0.726364
  H      -1.522655     -0.374011     -0.280995
  H      -1.399736     -1.362735     -1.666372
  O      -1.212748      1.338586      0.726363
  H      -0.374012      1.522655      0.280994
  H      -1.362736      1.399736      1.666371
  O       1.338587      1.212747     -0.726364
  H       1.522656      0.374012     -0.280994
  H       1.399737      1.362736     -1.666372
12
Coordinates from ORCA-job 04_H2O_4 E -305.712410177671
  O       1.192370     -1.312874      0.769508
  H       0.371907     -1.509725      0.300600
  H       1.314062     -1.353799      1.714371
  O      -1.312875     -1.192368     -0.769508
  H      -1.509726     -0.371905     -0.300600
  H      -1.353800     -1.314060     -1.714371
  O      -1.192369      1.312874      0.769507
  H      -0.371906      1.509726      0.300600
  H      -1.314061      1.353800      1.714371
  O       1.312875      1.192369     -0.769508
  H       1.509727      0.371906     -0.300600
  H       1.353801      1.314061     -1.714371
12
Coordinates from ORCA-job 04_H2O_4 E -305.710786234138
  O       1.171218     -1.285704      0.812594
  H       0.369924     -1.496245      0.320561
  H       1.263562     -1.306831      1.761105
  O      -1.285704     -1.171216     -0.812593
  H      -1.496245     -0.369923     -0.320561
  H      -1.306832     -1.263561     -1.761105
  O      -1.171217      1.285704      0.812593
  H      -0.369924      1.496245      0.320561
  H      -1.263561      1.306832      1.761105
  O       1.285705      1.171217     -0.812593
  H       1.496246      0.369924     -0.320561
  H       1.306833      1.263561     -1.761105
12
Coordinates from ORCA-job 04_H2O_4 E -305.709060402260
  O       1.148449     -1.256138      0.855146
  H       0.367429     -1.481005      0.340597
  H       1.210730     -1.257935      1.806005
  O      -1.256138     -1.148448     -0.855146
  H      -1.481005     -0.367428     -0.340597
  H      -1.257936     -1.210729     -1.806005
  O      -1.148449      1.256138      0.855145
  H      -0.367429      1.481005      0.340596
  H      -1.210729      1.257935      1.806004
  O       1.256139      1.148448     -0.855146
  H       1.481006      0.367428     -0.340596
  H       1.257936      1.210729     -1.806005
12
Coordinates from ORCA-job 04_H2O_4 E -305.707212880936
  O       1.124710     -1.224941      0.897339
  H       0.365030     -1.465081      0.360903
  H       1.156056     -1.207990      1.849228
  O      -1.224941     -1.124709     -0.897339
  H      -1.465081     -0.365029     -0.360902
  H      -1.207991     -1.156055     -1.849228
  O      -1.124709      1.224941      0.897338
  H      -0.365030      1.465081      0.360902
  H      -1.156056      1.207991      1.849228
  O       1.224942      1.124709     -0.897339
  H       1.465082      0.365029     -0.360902
  H       1.207991      1.156056     -1.849228
12
Coordinates from ORCA-job 04_H2O_4 E -305.705218106091
  O       1.100378     -1.192590      0.939255
  H       0.363175     -1.449077      0.381612
  H       1.099896     -1.157701      1.890828
  O      -1.192591     -1.100376     -0.939255
  H      -1.449077     -0.363173     -0.381611
  H      -1.157702     -1.099895     -1.890828
  O      -1.100377      1.192591      0.939255
  H      -0.363175      1.449077      0.381611
  H      -1.099896      1.157701      1.890828
  O       1.192592      1.100377     -0.939255
  H       1.449078      0.363174     -0.381611
  H       1.157702      1.099895     -1.890828
12
Coordinates from ORCA-job 04_H2O_4 E -305.703096113488
  O       1.075931     -1.159562      0.980820
  H       0.362362     -1.433478      0.402845
  H       1.042562     -1.107968      1.930674
  O      -1.159563     -1.075930     -0.980820
  H      -1.433478     -0.362360     -0.402845
  H      -1.107969     -1.042561     -1.930674
  O      -1.075931      1.159563      0.980819
  H      -0.362361      1.433478      0.402845
  H      -1.042562      1.107968      1.930673
  O       1.159563      1.075930     -0.980820
  H       1.433479      0.362361     -0.402845
  H       1.107969      1.042562     -1.930673
12
Coordinates from ORCA-job 04_H2O_4 E -305.700881107493
  O       1.052751     -1.127431      1.022124
  H       0.363743     -1.419938      0.424918
  H       0.985307     -1.061104      1.968860
  O      -1.127432     -1.052749     -1.022124
  H      -1.419938     -0.363741     -0.424917
  H      -1.061105     -0.985306     -1.968861
  O      -1.052750      1.127432      1.022123
  H      -0.363742      1.419938      0.424917
  H      -0.985307      1.061104      1.968860
  O       1.127432      1.052750     -1.022124
  H       1.419939      0.363742     -0.424917
  H       1.061105      0.985307     -1.968860
12
Coordinates from ORCA-job 04_H2O_4 E -305.698564257754
  O       1.031337     -1.096878      1.062848
  H       0.367628     -1.408726      0.447779
  H       0.929060     -1.018410      2.005101
  O      -1.096879     -1.031336     -1.062848
  H      -1.408726     -0.367626     -0.447778
  H      -1.018411     -0.929059     -2.005101
  O      -1.031337      1.096879      1.062847
  H      -0.367627      1.408726      0.447778
  H      -0.929060      1.018411      2.005100
  O       1.096879      1.031336     -1.062848
  H       1.408727      0.367627     -0.447778
  H       1.018411      0.929060     -2.005100
12
Coordinates from ORCA-job 04_H2O_4 E -305.696337680619
  O       1.013497     -1.070142      1.102515
  H       0.375030     -1.401552      0.471368
  H       0.876234     -0.983182      2.039123
  O      -1.070142     -1.013496     -1.102514
  H      -1.401553     -0.375028     -0.471368
  H      -0.983183     -0.876233     -2.039123
  O      -1.013496      1.070142      1.102513
  H      -0.375029      1.401553      0.471367
  H      -0.876233      0.983183      2.039122
  O       1.070142      1.013496     -1.102514
  H       1.401553      0.375029     -0.471368
  H       0.983183      0.876234     -2.039122
12
Coordinates from ORCA-job 04_H2O_4 E -305.694549654407
  O       1.001224     -1.050022      1.140198
  H       0.386602     -1.400290      0.495224
  H       0.830283     -0.958957      2.070436
  O      -1.050022     -1.001223     -1.140197
  H      -1.400290     -0.386600     -0.495224
  H      -0.958957     -0.830281     -2.070436
  O      -1.001224      1.050022      1.140196
  H      -0.386601      1.400290      0.495223
  H      -0.830282      0.958957      2.070435
  O       1.050022      1.001223     -1.140197
  H       1.400291      0.386601     -0.495223
  H       0.958957      0.830282     -2.070436
12
Coordinates from ORCA-job 04_H2O_4 E -305.693186182777
  O       0.992955     -1.035110      1.175881
  H       0.401043     -1.402933      0.518963
  H       0.790424     -0.943567      2.099271
  O      -1.035111     -0.992953     -1.175880
  H      -1.402934     -0.401040     -0.518962
  H      -0.943568     -0.790422     -2.099271
  O      -0.992954      1.035110      1.175879
  H      -0.401042      1.402933      0.518962
  H      -0.790423      0.943567      2.099270
  O       1.035111      0.992954     -1.175880
  H       1.402934      0.401041     -0.518962
  H       0.943567      0.790424     -2.099270
12
Coordinates from ORCA-job 04_H2O_4 E -305.692230188541
  O       0.987818     -1.024511      1.209689
  H       0.417692     -1.408381      0.542361
  H       0.755935     -0.935770      2.125980
  O      -1.024512     -0.987816     -1.209688
  H      -1.408381     -0.417689     -0.542360
  H      -0.935771     -0.755933     -2.125979
  O      -0.987817      1.024511      1.209686
  H      -0.417691      1.408380      0.542359
  H      -0.755934      0.935770      2.125978
  O       1.024512      0.987817     -1.209687
  H       1.408382      0.417691     -0.542360
  H       0.935770      0.755935     -2.125979
12
Coordinates from ORCA-job 04_H2O_4 E -305.691635834189
  O       0.985097     -1.017420      1.241812
  H       0.436060     -1.415827      0.565325
  H       0.725985     -0.934380      2.150865
  O      -1.017421     -0.985094     -1.241810
  H      -1.415828     -0.436058     -0.565324
  H      -0.934381     -0.725983     -2.150864
  O      -0.985096      1.017420      1.241809
  H      -0.436059      1.415827      0.565323
  H      -0.725984      0.934379      2.150863
  O       1.017421      0.985095     -1.241810
  H       1.415828      0.436059     -0.565324
  H       0.934380      0.725985     -2.150864
12
Coordinates from ORCA-job 04_H2O_4 E -305.691383947940
  O       0.984570     -1.013683      1.272250
  H       0.455892     -1.425200      0.587678
  H       0.700430     -0.938869      2.174074
  O      -1.013684     -0.984568     -1.272249
  H      -1.425201     -0.455889     -0.587677
  H      -0.938870     -0.700427     -2.174073
  O      -0.984569      1.013682      1.272247
  H      -0.455891      1.425200      0.587675
  H      -0.700429      0.938868      2.174071
  O       1.013684      0.984569     -1.272249
  H       1.425202      0.455891     -0.587676
  H       0.938869      0.700430     -2.174073
12
Coordinates from ORCA-job 04_H2O_4 E -305.691436499504
  O       0.986079     -1.013231      1.301035
  H       0.476926     -1.436570      0.609257
  H       0.679210     -0.948641      2.195789
  O      -1.013233     -0.986076     -1.301033
  H      -1.436571     -0.476922     -0.609255
  H      -0.948642     -0.679206     -2.195787
  O      -0.986078      1.013230      1.301031
  H      -0.476924      1.436569      0.609253
  H      -0.679208      0.948639      2.195785
  O       1.013232      0.986077     -1.301033
  H       1.436572      0.476924     -0.609254
  H       0.948641      0.679209     -2.195787
12
Coordinates from ORCA-job 04_H2O_4 E -305.691692276352
  O       0.988977     -1.015327      1.328499
  H       0.498863     -1.449378      0.630127
  H       0.661442     -0.962509      2.216318
  O      -1.015329     -0.988973     -1.328497
  H      -1.449380     -0.498860     -0.630124
  H      -0.962511     -0.661438     -2.216316
  O      -0.988976      1.015326      1.328495
  H      -0.498862      1.449377      0.630122
  H      -0.661440      0.962508      2.216313
  O       1.015328      0.988975     -1.328497
  H       1.449380      0.498862     -0.630124
  H       0.962510      0.661441     -2.216316
12
Coordinates from ORCA-job 04_H2O_4 E -305.692102035819
  O       0.992921     -1.019542      1.354807
  H       0.521510     -1.463359      0.650317
  H       0.646553     -0.979674      2.235802
  O      -1.019545     -0.992917     -1.354805
  H      -1.463361     -0.521506     -0.650314
  H      -0.979676     -0.646548     -2.235799
  O      -0.992920      1.019540      1.354802
  H      -0.521508      1.463358      0.650312
  H      -0.646551      0.979672      2.235796
  O       1.019544      0.992919     -1.354805
  H       1.463361      0.521508     -0.650314
  H       0.979675      0.646552     -2.235800
12
Coordinates from ORCA-job 04_H2O_4 E -305.692601589450
  O       0.997527     -1.025385      1.380192
  H       0.544707     -1.478150      0.669922
  H       0.633901     -0.999364      2.254423
  O      -1.025388     -0.997523     -1.380188
  H      -1.478153     -0.544703     -0.669918
  H      -0.999367     -0.633896     -2.254419
  O      -0.997526      1.025383      1.380185
  H      -0.544705      1.478149      0.669916
  H      -0.633899      0.999362      2.254416
  O       1.025387      0.997525     -1.380189
  H       1.478153      0.544705     -0.669918
  H       0.999366      0.633900     -2.254421
12
Coordinates from ORCA-job 04_H2O_4 E -305.693136498918
  O       1.002525     -1.032475      1.404861
  H       0.568298     -1.493464      0.689065
  H       0.622987     -1.020936      2.272325
  O      -1.032479     -1.002520     -1.404857
  H      -1.493468     -0.568294     -0.689061
  H      -1.020939     -0.622981     -2.272321
  O      -1.002523      1.032473      1.404854
  H      -0.568296      1.493463      0.689058
  H      -0.622984      1.020932      2.272317
  O       1.032478      1.002522     -1.404857
  H       1.493467      0.568297     -0.689061
  H       1.020937      0.622986     -2.272322
12
Coordinates from ORCA-job 04_H2O_4 E -305.693654852960
  O       1.007657     -1.040407      1.429017
  H       0.592134     -1.508981      0.707933
  H       0.613293     -1.043773      2.289633
  O      -1.040412     -1.007652     -1.429013
  H      -1.508985     -0.592129     -0.707928
  H      -1.043776     -0.613286     -2.289628
  O      -1.007655      1.040405      1.429009
  H      -0.592132      1.508980      0.707925
  H      -0.613290      1.043769      2.289623
  O       1.040410      1.007654     -1.429013
  H       1.508985      0.592133     -0.707928
  H       1.043775      0.613292     -2.289629
12
Coordinates from ORCA-job 04_H2O_4 E -305.693981730785
  O       1.003465     -1.034248      1.433452
  H       0.596226     -1.494218      0.710593
  H       0.606650     -1.059806      2.291153
  O      -1.034252     -1.003462     -1.433448
  H      -1.494221     -0.596224     -0.710590
  H      -1.059809     -0.606647     -2.291149
  O      -1.003463      1.034247      1.433445
  H      -0.596224      1.494217      0.710587
  H      -0.606648      1.059803      2.291146
  O       1.034251      1.003464     -1.433448
  H       1.494220      0.596227     -0.710590
  H       1.059808      0.606651     -2.291150
12
Coordinates from ORCA-job 04_H2O_4 E -305.693801786093
  O       0.999149     -1.027769      1.441950
  H       0.599708     -1.469691      0.714546
  H       0.602042     -1.087807      2.297251
  O      -1.027770     -0.999149     -1.441949
  H      -1.469692     -0.599708     -0.714544
  H      -1.087807     -0.602043     -2.297251
  O      -0.999147      1.027769      1.441947
  H      -0.599707      1.469691      0.714543
  H      -0.602040      1.087805      2.297249
  O       1.027769      0.999151     -1.441948
  H       1.469692      0.599710     -0.714544
  H       1.087807      0.602044     -2.297249
12
Coordinates from ORCA-job 04_H2O_4 E -305.693379035697
  O       0.998953     -1.027430      1.452253
  H       0.600088     -1.450695      0.718793
  H       0.605165     -1.113546      2.306283
  O      -1.027427     -0.998958     -1.452254
  H      -1.450694     -0.600093     -0.718795
  H      -1.113543     -0.605172     -2.306285
  O      -0.998952      1.027431      1.452254
  H      -0.600087      1.450697      0.718793
  H      -0.605164      1.113546      2.306284
  O       1.027427      0.998959     -1.452252
  H       1.450694      0.600093     -0.718793
  H       1.113543      0.605170     -2.306282
12
Coordinates from ORCA-job 04_H2O_4 E -305.692667217107
  O       1.002717     -1.033394      1.475180
  H       0.602926     -1.427262      0.730395
  H       0.615073     -1.158377      2.326548
  O      -1.033385     -1.002725     -1.475184
  H      -1.427257     -0.602934     -0.730401
  H      -1.158366     -0.615084     -2.326554
  O      -1.002716      1.033398      1.475186
  H      -0.602926      1.427266      0.730400
  H      -0.615072      1.158380      2.326555
  O       1.033385      1.002724     -1.475180
  H       1.427257      0.602932     -0.730398
  H       1.158366      0.615079     -2.326547
12
Coordinates from ORCA-job 04_H2O_4 E -305.691967862324
  O       1.008915     -1.043655      1.501712
  H       0.607822     -1.411034      0.745635
  H       0.627719     -1.203168      2.349754
  O      -1.043640     -1.008928     -1.501719
  H      -1.411025     -0.607836     -0.745647
  H      -1.203149     -0.627736     -2.349764
  O      -1.008914      1.043662      1.501724
  H      -0.607823      1.411041      0.745647
  H      -0.627719      1.203174      2.349767
  O       1.043641      1.008925     -1.501713
  H       1.411026      0.607830     -0.745641
  H       1.203149      0.627727     -2.349755
12
Coordinates from ORCA-job 04_H2O_4 E -305.691541086066
  O       1.017314     -1.057294      1.529994
  H       0.615450     -1.402703      0.763503
  H       0.641759     -1.247344      2.373933
  O      -1.057272     -1.017328     -1.530006
  H      -1.402690     -0.615465     -0.763518
  H      -1.247318     -0.641777     -2.373948
  O      -1.017314      1.057304      1.530013
  H      -0.615452      1.402712      0.763520
  H      -0.641759      1.247353      2.373953
  O       1.057274      1.017323     -1.529998
  H       1.402691      0.615457     -0.763510
  H       1.247319      0.641764     -2.373936
12
Coordinates from ORCA-job 04_H2O_4 E -305.691344527259
  O       1.027218     -1.073133      1.558039
  H       0.624721     -1.399979      0.782329
  H       0.657047     -1.291147      2.397351
  O      -1.073106     -1.027233     -1.558055
  H      -1.399962     -0.624737     -0.782350
  H      -1.291114     -0.657066     -2.397369
  O      -1.027218      1.073146      1.558064
  H      -0.624724      1.399990      0.782352
  H      -0.657047      1.291160      2.397377
  O       1.073109      1.027226     -1.558044
  H       1.399965      0.624727     -0.782340
  H       1.291116      0.657050     -2.397355
12
Coordinates from ORCA-job 04_H2O_4 E -305.691323923237
  O       1.038246     -1.090607      1.585098
  H       0.635331     -1.401728      0.801400
  H       0.673480     -1.335069      2.419298
  O      -1.090576     -1.038260     -1.585118
  H      -1.401710     -0.635346     -0.801424
  H      -1.335032     -0.673496     -2.419321
  O      -1.038247      1.090623      1.585130
  H      -0.635336      1.401741      0.801429
  H      -0.673481      1.335086      2.419331
  O       1.090580      1.038250     -1.585105
  H       1.401713      0.635333     -0.801412
  H       1.335035      0.673477     -2.419305
12
Coordinates from ORCA-job 04_H2O_4 E -305.691390836173
  O       1.050034     -1.109337      1.610874
  H       0.646912     -1.406871      0.820308
  H       0.691115     -1.379487      2.439517
  O      -1.109303     -1.050046     -1.610898
  H      -1.406852     -0.646926     -0.820336
  H      -1.379447     -0.691128     -2.439544
  O      -1.050036      1.109356      1.610913
  H      -0.646918      1.406887      0.820344
  H      -0.691117      1.379507      2.439556
  O       1.109309      1.050034     -1.610884
  H       1.406856      0.646910     -0.820323
  H       1.379450      0.691106     -2.439527
12
Coordinates from ORCA-job 04_H2O_4 E -305.691535058825
  O       1.062411     -1.129105      1.635304
  H       0.659699     -1.415500      0.838912
  H       0.709557     -1.424066      2.457936
  O      -1.129070     -1.062419     -1.635332
  H      -1.415480     -0.659709     -0.838943
  H      -1.424025     -0.709565     -2.457967
  O      -1.062414      1.129126      1.635350
  H      -0.659706      1.415517      0.838954
  H      -0.709561      1.424089      2.457982
  O       1.129077      1.062404     -1.635318
  H       1.415485      0.659690     -0.838929
  H       1.424029      0.709539     -2.457949
12
Coordinates from ORCA-job 04_H2O_4 E -305.691897987778
  O       1.075180     -1.149303      1.658223
  H       0.675197     -1.429641      0.857066
  H       0.726760     -1.466420      2.474368
  O      -1.149268     -1.075183     -1.658255
  H      -1.429622     -0.675204     -0.857100
  H      -1.466379     -0.726761     -2.474402
  O      -1.075184      1.149326      1.658275
  H      -0.675206      1.429660      0.857114
  H      -0.726765      1.466446      2.474420
  O       1.149277      1.075166     -1.658240
  H       1.429629      0.675183     -0.857085
  H       1.466385      0.726734     -2.474384
12
Coordinates from ORCA-job 04_H2O_4 E -305.693716411546
  O       1.087014     -1.163253      1.650095
  H       0.677316     -1.441783      0.849719
  H       0.741016     -1.486143      2.465660
  O      -1.163224     -1.087018     -1.650127
  H      -1.441767     -0.677323     -0.849752
  H      -1.486110     -0.741018     -2.465693
  O      -1.087018      1.163275      1.650146
  H      -0.677325      1.441801      0.849766
  H      -0.741020      1.486168      2.465710
  O       1.163232      1.087001     -1.650112
  H       1.441774      0.677303     -0.849738
  H       1.486116      0.740992     -2.465675
