15
Coordinates from ORCA-job 05_H2O_5 E -382.196349171657
  O       2.312927      0.150318      0.177415
  O       0.864769     -2.137443     -0.159420
  O      -1.781315     -1.498466      0.059758
  O      -1.961951      1.234812     -0.062774
  O       0.577396      2.241432     -0.075822
  H       1.836849     -0.694236      0.049250
  H      -0.089971     -1.943593     -0.076678
  H      -1.915322     -0.530797      0.048103
  H      -1.066728      1.628166     -0.074484
  H       1.229463      1.522335      0.042111
  H       2.825562      0.034681      0.978576
  H       0.953988     -2.623745     -0.980296
  H      -2.260123     -1.814802      0.826889
  H      -2.472247      1.784461      0.533098
  H       0.863928      2.712310     -0.859811
15
Coordinates from ORCA-job 05_H2O_5 E -382.194539146377
  O       2.326530      0.129398      0.256423
  O       0.865778     -2.153176     -0.224615
  O      -1.808793     -1.503170      0.086973
  O      -1.992429      1.273954     -0.019071
  O       0.600503      2.243762     -0.151906
  H       1.852672     -0.717425      0.100098
  H      -0.097934     -1.959895     -0.134170
  H      -1.958280     -0.526253      0.091389
  H      -1.084444      1.660268     -0.077705
  H       1.249100      1.519645      0.010247
  H       2.825950      0.057061      1.074166
  H       1.015667     -2.612147     -1.053985
  H      -2.251630     -1.876328      0.846332
  H      -2.502744      1.825606      0.568472
  H       0.877279      2.704132     -0.946732
15
Coordinates from ORCA-job 05_H2O_5 E -382.190586669849
  O       2.325085      0.108111      0.340299
  O       0.860944     -2.157832     -0.296869
  O      -1.826498     -1.499429      0.120389
  O      -2.009879      1.308938      0.022078
  O       0.622055      2.233600     -0.229014
  H       1.854539     -0.736399      0.158683
  H      -0.104927     -1.967331     -0.204103
  H      -1.993851     -0.522685      0.141936
  H      -1.097640      1.682328     -0.084388
  H       1.259851      1.508877     -0.022788
  H       2.807986      0.080826      1.170738
  H       1.075608     -2.585266     -1.129212
  H      -2.226970     -1.934130      0.869751
  H      -2.520042      1.865186      0.601719
  H       0.890963      2.680638     -1.033303
15
Coordinates from ORCA-job 05_H2O_5 E -382.185465386591
  O       2.309015      0.088937      0.427789
  O       0.855759     -2.153547     -0.375134
  O      -1.836044     -1.497463      0.160087
  O      -2.019074      1.340365      0.060948
  O       0.643519      2.218759     -0.307666
  H       1.842615     -0.750851      0.220895
  H      -0.110063     -1.968977     -0.283042
  H      -2.022818     -0.524457      0.199682
  H      -1.107856      1.699554     -0.093796
  H       1.265887      1.496277     -0.056380
  H       2.772102      0.100020      1.269010
  H       1.130359     -2.548591     -1.205752
  H      -2.190454     -1.989655      0.897251
  H      -2.526266      1.905949      0.632683
  H       0.910545      2.649114     -1.120661
15
Coordinates from ORCA-job 05_H2O_5 E -382.179659601572
  O       2.279296      0.070827      0.518653
  O       0.851379     -2.137909     -0.459342
  O      -1.836757     -1.496988      0.206668
  O      -2.022705      1.368243      0.097089
  O       0.664340      2.196961     -0.387710
  H       1.817504     -0.762002      0.285644
  H      -0.113799     -1.960407     -0.370182
  H      -2.044676     -0.530333      0.265338
  H      -1.116330      1.712094     -0.106110
  H       1.268236      1.479199     -0.090131
  H       2.719934      0.113214      1.369723
  H       1.180256     -2.500523     -1.284763
  H      -2.141383     -2.041545      0.929640
  H      -2.523803      1.947278      0.659885
  H       0.935733      2.607324     -1.208485
15
Coordinates from ORCA-job 05_H2O_5 E -382.173461454284
  O       2.234088      0.053101      0.612541
  O       0.846217     -2.109234     -0.548466
  O      -1.826276     -1.498758      0.259679
  O      -2.020419      1.392527      0.130569
  O       0.685291      2.167371     -0.469626
  H       1.776477     -0.770704      0.352297
  H      -0.117409     -1.938694     -0.464263
  H      -2.056654     -0.540285      0.339123
  H      -1.122282      1.720312     -0.121406
  H       1.267478      1.456520     -0.124340
  H       2.649770      0.120344      1.473211
  H       1.224280     -2.438969     -1.366170
  H      -2.077030     -2.090459      0.966703
  H      -2.512997      1.988007      0.683290
  H       0.966692      2.554354     -1.297227
15
Coordinates from ORCA-job 05_H2O_5 E -382.166973339654
  O       2.171548      0.034287      0.708786
  O       0.840008     -2.066387     -0.641971
  O      -1.801558     -1.500902      0.318808
  O      -2.012661      1.413454      0.161300
  O       0.706129      2.127845     -0.553127
  H       1.717566     -0.778361      0.419718
  H      -0.121296     -1.900892     -0.563910
  H      -2.055528     -0.552752      0.421133
  H      -1.126059      1.724303     -0.139784
  H       1.263067      1.426000     -0.158706
  H       2.559604      0.120857      1.579245
  H       1.262820     -2.362503     -1.450049
  H      -1.993852     -2.134487      1.008337
  H      -2.495247      2.027249      0.702583
  H       1.002687      2.487723     -1.386449
15
Coordinates from ORCA-job 05_H2O_5 E -382.160275007031
  O       2.091257      0.013019      0.806135
  O       0.832331     -2.007476     -0.738809
  O      -1.760202     -1.502357      0.384041
  O      -2.000867      1.431438      0.188442
  O       0.726910      2.075946     -0.636895
  H       1.640022     -0.785783      0.486078
  H      -0.126013     -1.844347     -0.666499
  H      -2.038977     -0.566523      0.511353
  H      -1.128653      1.723970     -0.161668
  H       1.254970      1.385558     -0.192108
  H       2.449285      0.113632      1.686476
  H       1.295425     -2.268430     -1.536330
  H      -1.888989     -2.172382      1.054320
  H      -2.472864      2.064980      0.716149
  H       1.043591      2.404188     -1.474770
15
Coordinates from ORCA-job 05_H2O_5 E -382.153010665862
  O       1.992097     -0.011400      0.904037
  O       0.822208     -1.929766     -0.833851
  O      -1.702985     -1.501256      0.448667
  O      -1.981982      1.447345      0.218267
  O       0.748022      2.005873     -0.725072
  H       1.542702     -0.793805      0.552563
  H      -0.132284     -1.765767     -0.767712
  H      -2.005621     -0.579756      0.605914
  H      -1.127576      1.719212     -0.182984
  H       1.244309      1.331040     -0.228598
  H       2.315870      0.104708      1.794259
  H       1.325954     -2.149840     -1.618416
  H      -1.764945     -2.205505      1.093618
  H      -2.442422      2.099120      0.733951
  H       1.083877      2.295232     -1.568728
15
Coordinates from ORCA-job 05_H2O_5 E -382.144920206856
  O       1.874030     -0.039986      1.000005
  O       0.809084     -1.832423     -0.926463
  O      -1.628258     -1.496613      0.513795
  O      -1.956934      1.461687      0.248640
  O       0.768976      1.915920     -0.814640
  H       1.424993     -0.802956      0.616313
  H      -0.140657     -1.664703     -0.865349
  H      -1.953944     -0.591895      0.705014
  H      -1.123783      1.710153     -0.204732
  H       1.230088      1.260472     -0.266163
  H       2.162178      0.092873      1.898688
  H       1.354136     -2.006275     -1.694300
  H      -1.619450     -2.232073      1.126788
  H      -2.407240      2.130263      0.751721
  H       1.124007      2.160989     -1.663403
15
Coordinates from ORCA-job 05_H2O_5 E -382.136030681113
  O       1.738307     -0.072766      1.091321
  O       0.793309     -1.715140     -1.014157
  O      -1.535536     -1.487360      0.577748
  O      -1.925799      1.474882      0.278786
  O       0.788309      1.804621     -0.903305
  H       1.288539     -0.813154      0.674157
  H      -0.150967     -1.542243     -0.955582
  H      -1.882759     -0.602094      0.806173
  H      -1.117595      1.696977     -0.226862
  H       1.211133      1.172897     -0.303251
  H       1.990306      0.077676      1.996684
  H       1.379458     -1.837001     -1.760885
  H      -1.453553     -2.249708      1.152046
  H      -2.368114      2.158302      0.768960
  H       1.162187      1.999543     -1.755918
15
Coordinates from ORCA-job 05_H2O_5 E -382.132283119257
  O       1.764806     -0.112770      1.084049
  O       0.758054     -1.709585     -1.033885
  O      -1.523798     -1.480488      0.625965
  O      -1.954931      1.461900      0.225039
  O       0.810004      1.822826     -0.864851
  H       1.300311     -0.841955      0.658520
  H      -0.182884     -1.529603     -0.942238
  H      -1.876583     -0.589584      0.836240
  H      -1.123674      1.689074     -0.254294
  H       1.230709      1.173118     -0.276746
  H       2.034840      0.033291      1.986211
  H       1.338000     -1.817731     -1.788260
  H      -1.399278     -2.227848      1.210464
  H      -2.453560      2.139784      0.663191
  H       1.195210      2.055003     -1.703490
15
Coordinates from ORCA-job 05_H2O_5 E -382.129409729925
  O       1.677557     -0.145455      1.130023
  O       0.745765     -1.618526     -1.081448
  O      -1.447692     -1.473912      0.669138
  O      -1.941402      1.465312      0.227148
  O       0.830351      1.747715     -0.904843
  H       1.223850     -0.856563      0.673389
  H      -0.191796     -1.449988     -0.969204
  H      -1.806854     -0.591900      0.889896
  H      -1.125734      1.686554     -0.267704
  H       1.233511      1.115507     -0.291862
  H       1.901251     -0.004963      2.043416
  H       1.326095     -1.683302     -1.838668
  H      -1.267115     -2.212864      1.251590
  H      -2.458552      2.145022      0.645601
  H       1.217990      1.942796     -1.750558
15
Coordinates from ORCA-job 05_H2O_5 E -382.122395712764
  O       1.560396     -0.158038      1.187939
  O       0.753521     -1.533684     -1.122501
  O      -1.367162     -1.465811      0.687697
  O      -1.913357      1.493478      0.274615
  O       0.831297      1.646967     -0.983940
  H       1.104884     -0.852041      0.715127
  H      -0.182016     -1.357620     -1.034237
  H      -1.741644     -0.609578      0.948352
  H      -1.138232      1.693801     -0.268443
  H       1.203257      1.041671     -0.335073
  H       1.766436     -0.003405      2.099998
  H       1.376608     -1.576943     -1.844446
  H      -1.155291     -2.231789      1.225814
  H      -2.413738      2.181054      0.705632
  H       1.232266      1.797370     -1.830619
15
Coordinates from ORCA-job 05_H2O_5 E -382.114091014679
  O       1.449602     -0.181361      1.245082
  O       0.756634     -1.417875     -1.173861
  O      -1.289730     -1.474119      0.731076
  O      -1.894175      1.523592      0.300227
  O       0.848180      1.530262     -1.053757
  H       0.996074     -0.854354      0.750208
  H      -0.175486     -1.249994     -1.087731
  H      -1.675664     -0.639170      1.021963
  H      -1.150779      1.703409     -0.278085
  H       1.191282      0.955240     -0.371456
  H       1.631769     -0.017268      2.157148
  H       1.400065     -1.409516     -1.875860
  H      -1.035458     -2.251495      1.236132
  H      -2.393611      2.218763      0.726590
  H       1.258525      1.629318     -1.901762
15
Coordinates from ORCA-job 05_H2O_5 E -382.105676471821
  O       1.388470     -0.212053      1.287702
  O       0.744920     -1.347245     -1.221242
  O      -1.231013     -1.489776      0.780780
  O      -1.896432      1.560233      0.297840
  O       0.875092      1.465588     -1.091234
  H       0.928413     -0.865153      0.777723
  H      -0.183138     -1.182200     -1.126208
  H      -1.626801     -0.671238      1.087608
  H      -1.172062      1.729174     -0.294085
  H       1.194661      0.904753     -0.392082
  H       1.562758     -0.045611      2.197830
  H       1.396784     -1.301973     -1.910917
  H      -0.940510     -2.271445      1.261645
  H      -2.419044      2.252923      0.705923
  H       1.295128      1.539454     -1.935367
15
Coordinates from ORCA-job 05_H2O_5 E -382.100373773242
  O       1.382517     -0.245469      1.315252
  O       0.733154     -1.314047     -1.256538
  O      -1.207386     -1.510372      0.829314
  O      -1.921992      1.598460      0.276755
  O       0.910592      1.446287     -1.102699
  H       0.914564     -0.882211      0.796637
  H      -0.192084     -1.149929     -1.142797
  H      -1.610726     -0.701042      1.138606
  H      -1.201807      1.766209     -0.310741
  H       1.216182      0.887107     -0.400256
  H       1.561082     -0.085595      2.223370
  H       1.369017     -1.250242     -1.957075
  H      -0.891780     -2.289726      1.299945
  H      -2.481985      2.279951      0.658323
  H       1.337877      1.516054     -1.942180
15
Coordinates from ORCA-job 05_H2O_5 E -382.095514397744
  O       1.382452     -0.264004      1.320107
  O       0.717475     -1.309571     -1.273868
  O      -1.200137     -1.504748      0.854264
  O      -1.932007      1.603644      0.265925
  O       0.917415      1.440898     -1.099483
  H       0.895712     -0.892518      0.803314
  H      -0.205433     -1.129253     -1.161539
  H      -1.612788     -0.700466      1.168821
  H      -1.207970      1.763624     -0.323655
  H       1.212170      0.874405     -0.397440
  H       1.590987     -0.095608      2.217898
  H       1.373026     -1.244151     -1.958795
  H      -0.865861     -2.295363      1.306887
  H      -2.508131      2.287076      0.628295
  H       1.360316      1.531469     -1.924817
15
Coordinates from ORCA-job 05_H2O_5 E -382.096135844872
  O       1.377716     -0.271396      1.336256
  O       0.718122     -1.304929     -1.302626
  O      -1.191629     -1.515380      0.876241
  O      -1.934829      1.613952      0.256621
  O       0.927747      1.435718     -1.100855
  H       0.894429     -0.894852      0.802421
  H      -0.203305     -1.132648     -1.170159
  H      -1.601951     -0.714349      1.181353
  H      -1.217773      1.776326     -0.327973
  H       1.219318      0.872328     -0.394717
  H       1.563338     -0.116141      2.245043
  H       1.355428     -1.209933     -2.004191
  H      -0.842429     -2.288250      1.345492
  H      -2.520517      2.299192      0.610930
  H       1.373562      1.515795     -1.927921
15
Coordinates from ORCA-job 05_H2O_5 E -382.094492865388
  O       1.367269     -0.281983      1.351597
  O       0.716637     -1.291039     -1.329128
  O      -1.178681     -1.530831      0.902935
  O      -1.942398      1.631219      0.248752
  O       0.943990      1.424167     -1.109354
  H       0.882645     -0.896842      0.807173
  H      -0.202608     -1.123917     -1.182287
  H      -1.590054     -0.734964      1.204777
  H      -1.232313      1.792285     -0.335659
  H       1.227364      0.864244     -0.398796
  H       1.540620     -0.134098      2.265560
  H       1.342724     -1.171290     -2.035950
  H      -0.815671     -2.290969      1.375785
  H      -2.537723      2.314543      0.595815
  H       1.395423      1.494905     -1.935305
15
Coordinates from ORCA-job 05_H2O_5 E -382.092226825466
  O       1.371370     -0.295502      1.355895
  O       0.709056     -1.288141     -1.360384
  O      -1.178978     -1.545213      0.939180
  O      -1.953772      1.644069      0.230204
  O       0.961898      1.424336     -1.099032
  H       0.882632     -0.902351      0.804147
  H      -0.207650     -1.125461     -1.194470
  H      -1.592111     -0.751339      1.230693
  H      -1.244525      1.804283     -0.345344
  H       1.239446      0.862400     -0.393254
  H       1.547404     -0.155406      2.267716
  H       1.324574     -1.147889     -2.073177
  H      -0.796364     -2.292281      1.421422
  H      -2.566767      2.328546      0.556945
  H       1.421014      1.505382     -1.914626
15
Coordinates from ORCA-job 05_H2O_5 E -382.089674930640
  O       1.369634     -0.309777      1.368092
  O       0.701409     -1.278614     -1.389350
  O      -1.172070     -1.558891      0.972304
  O      -1.966136      1.659051      0.217265
  O       0.980733      1.419127     -1.102491
  H       0.871568     -0.905073      0.808100
  H      -0.212146     -1.115795     -1.209367
  H      -1.588738     -0.770455      1.260296
  H      -1.260421      1.815629     -0.357600
  H       1.247954      0.855909     -0.394090
  H       1.545990     -0.175761      2.282357
  H       1.311990     -1.115829     -2.102248
  H      -0.772587     -2.296077      1.453992
  H      -2.591612      2.341720      0.531720
  H       1.451657      1.500269     -1.913066
15
Coordinates from ORCA-job 05_H2O_5 E -382.086933319022
  O       1.369204     -0.322739      1.377738
  O       0.693272     -1.268310     -1.416589
  O      -1.166999     -1.574505      1.005614
  O      -1.979402      1.674461      0.204146
  O       1.000956      1.413166     -1.105836
  H       0.861617     -0.906228      0.811815
  H      -0.217150     -1.106053     -1.223528
  H      -1.587546     -0.791009      1.290294
  H      -1.276856      1.826805     -0.370122
  H       1.258302      0.848940     -0.396084
  H       1.547735     -0.194098      2.293277
  H       1.299629     -1.084728     -2.128225
  H      -0.752017     -2.302656      1.485995
  H      -2.616574      2.355113      0.506589
  H       1.483053      1.497275     -1.909167
15
Coordinates from ORCA-job 05_H2O_5 E -382.084132023888
  O       1.370516     -0.335362      1.386704
  O       0.684053     -1.259837     -1.443952
  O      -1.163849     -1.589743      1.039206
  O      -1.993179      1.688995      0.190411
  O       1.021184      1.409496     -1.107651
  H       0.852236     -0.906624      0.815573
  H      -0.223031     -1.096972     -1.238342
  H      -1.588582     -0.811023      1.320678
  H      -1.293210      1.836700     -0.383238
  H       1.268227      0.843104     -0.396939
  H       1.555321     -0.212113      2.301831
  H       1.287650     -1.056941     -2.152831
  H      -0.733915     -2.309697      1.517291
  H      -2.641851      2.367550      0.480512
  H       1.515653      1.497900     -1.903338
15
Coordinates from ORCA-job 05_H2O_5 E -382.081246446646
  O       1.373034     -0.347087      1.393754
  O       0.674847     -1.250769     -1.470596
  O      -1.161969     -1.604558      1.072284
  O      -2.007480      1.703105      0.177262
  O       1.041426      1.404186     -1.109601
  H       0.843512     -0.905590      0.818529
  H      -0.228973     -1.086899     -1.253191
  H      -1.591086     -0.830614      1.351261
  H      -1.309753      1.845250     -0.396407
  H       1.278159      0.835561     -0.398550
  H       1.564435     -0.228307      2.309472
  H       1.277269     -1.029869     -2.175238
  H      -0.717786     -2.317274      1.547098
  H      -2.666734      2.379399      0.455903
  H       1.548326      1.498898     -1.896065
15
Coordinates from ORCA-job 05_H2O_5 E -382.078465098141
  O       1.374392     -0.356905      1.401591
  O       0.665639     -1.242143     -1.496105
  O      -1.160674     -1.619951      1.104050
  O      -2.021466      1.716693      0.165267
  O       1.062023      1.399732     -1.112225
  H       0.833892     -0.902665      0.823046
  H      -0.234833     -1.076820     -1.268399
  H      -1.594131     -0.850774      1.381365
  H      -1.326485      1.853184     -0.409313
  H       1.287677      0.828565     -0.400144
  H       1.575690     -0.243019      2.315187
  H       1.267992     -1.003421     -2.195662
  H      -0.703975     -2.326219      1.574556
  H      -2.690152      2.390620      0.433475
  H       1.581636      1.498557     -1.890774
15
Coordinates from ORCA-job 05_H2O_5 E -382.075673748697
  O       1.377283     -0.366420      1.407095
  O       0.656486     -1.233504     -1.522453
  O      -1.160611     -1.633874      1.136010
  O      -2.035828      1.729133      0.153382
  O       1.082537      1.394720     -1.113284
  H       0.825704     -0.899055      0.825324
  H      -0.240642     -1.066378     -1.283885
  H      -1.598541     -0.869251      1.411700
  H      -1.342980      1.859520     -0.421970
  H       1.297208      0.820551     -0.401228
  H       1.587824     -0.257408      2.320027
  H       1.258873     -0.979303     -2.215647
  H      -0.690969     -2.333961      1.602352
  H      -2.713938      2.400768      0.410768
  H       1.614818      1.499896     -1.882276
15
Coordinates from ORCA-job 05_H2O_5 E -382.072856525513
  O       1.379382     -0.374884      1.411688
  O       0.646936     -1.225575     -1.547562
  O      -1.161190     -1.647286      1.167288
  O      -2.049482      1.740791      0.141956
  O       1.102600      1.389453     -1.113844
  H       0.816941     -0.894282      0.827642
  H      -0.246905     -1.056207     -1.299013
  H      -1.603034     -0.887124      1.441791
  H      -1.358661      1.864652     -0.434472
  H       1.305808      0.811859     -0.401967
  H       1.602218     -0.270578      2.322305
  H       1.251790     -0.954911     -2.234180
  H      -0.679941     -2.341304      1.628312
  H      -2.736717      2.409635      0.388970
  H       1.647478      1.501194     -1.873001
15
Coordinates from ORCA-job 05_H2O_5 E -382.070065610892
  O       1.382392     -0.383020      1.416019
  O       0.637204     -1.216607     -1.572889
  O      -1.162473     -1.660321      1.198475
  O      -2.063091      1.751616      0.130338
  O       1.122635      1.384198     -1.113960
  H       0.809324     -0.888758      0.829743
  H      -0.253173     -1.044930     -1.314289
  H      -1.608451     -0.904431      1.471917
  H      -1.374209      1.868716     -0.447117
  H       1.314472      0.803242     -0.402251
  H       1.617405     -0.284024      2.324253
  H       1.244124     -0.931238     -2.251939
  H      -0.669659     -2.348862      1.654156
  H      -2.759182      2.417731      0.366901
  H       1.679906      1.502120     -1.863444
15
Coordinates from ORCA-job 05_H2O_5 E -382.067354561087
  O       1.384044     -0.391750      1.420764
  O       0.627855     -1.206749     -1.598113
  O      -1.162076     -1.673505      1.229690
  O      -2.076929      1.763115      0.118568
  O       1.142852      1.378409     -1.114741
  H       0.801185     -0.883262      0.832078
  H      -0.259075     -1.033194     -1.329377
  H      -1.612519     -0.921851      1.502033
  H      -1.390474      1.873552     -0.460078
  H       1.323283      0.794592     -0.402983
  H       1.629814     -0.298839      2.326802
  H       1.236221     -0.906336     -2.269473
  H      -0.657577     -2.356303      1.680475
  H      -2.781515      2.426353      0.345262
  H       1.712137      1.501199     -1.854994
15
Coordinates from ORCA-job 05_H2O_5 E -382.070039740733
  O       1.398514     -0.396280      1.445250
  O       0.618707     -1.197141     -1.593954
  O      -1.154520     -1.685088      1.227799
  O      -2.086039      1.768869      0.121212
  O       1.151228      1.389575     -1.147621
  H       0.811626     -0.890586      0.863891
  H      -0.264631     -1.014706     -1.340234
  H      -1.609682     -0.935956      1.505034
  H      -1.403394      1.878419     -0.470030
  H       1.325414      0.810160     -0.422703
  H       1.617873     -0.308782      2.362827
  H       1.233604     -0.915552     -2.260143
  H      -0.663231     -2.373629      1.670453
  H      -2.779190      2.435411      0.351123
  H       1.720945      1.500718     -1.886988
15
Coordinates from ORCA-job 05_H2O_5 E -382.071910541539
  O       1.415539     -0.406276      1.458510
  O       0.614334     -1.199087     -1.595464
  O      -1.149078     -1.693153      1.232051
  O      -2.101071      1.785819      0.118293
  O       1.152114      1.408857     -1.156837
  H       0.833802     -0.908438      0.886144
  H      -0.269145     -1.009420     -1.350735
  H      -1.610432     -0.942755      1.509387
  H      -1.415994      1.894713     -0.475226
  H       1.319393      0.827018     -0.430491
  H       1.622372     -0.325660      2.379808
  H       1.238252     -0.939048     -2.261909
  H      -0.666014     -2.388094      1.671689
  H      -2.790815      2.451721      0.339893
  H       1.723968      1.509235     -1.899199
15
Coordinates from ORCA-job 05_H2O_5 E -382.073723383186
  O       1.436877     -0.419262      1.475066
  O       0.616044     -1.202079     -1.594249
  O      -1.144069     -1.691295      1.231061
  O      -2.122545      1.803848      0.113613
  O       1.142421      1.423443     -1.163203
  H       0.862348     -0.934671      0.907286
  H      -0.270610     -1.002378     -1.357725
  H      -1.608026     -0.938365      1.507615
  H      -1.426994      1.909726     -0.479787
  H       1.309632      0.838669     -0.434678
  H       1.642283     -0.351565      2.394229
  H       1.247720     -0.966022     -2.262646
  H      -0.674452     -2.389713      1.667384
  H      -2.809277      2.466485      0.326518
  H       1.715874      1.518612     -1.904568
15
Coordinates from ORCA-job 05_H2O_5 E -382.074397367412
  O       1.461982     -0.439290      1.487352
  O       0.614354     -1.203469     -1.599068
  O      -1.141873     -1.686550      1.237812
  O      -2.144614      1.821123      0.100760
  O       1.131850      1.437772     -1.158703
  H       0.896889     -0.964201      0.924574
  H      -0.271902     -0.994827     -1.366808
  H      -1.609881     -0.930344      1.510153
  H      -1.437923      1.923926     -0.486144
  H       1.301166      0.847977     -0.432417
  H       1.671606     -0.382933      2.404482
  H       1.250902     -0.988350     -2.270507
  H      -0.679288     -2.388464      1.673811
  H      -2.833687      2.480352      0.299273
  H       1.707645      1.532712     -1.898656
15
Coordinates from ORCA-job 05_H2O_5 E -382.074849149692
  O       1.490159     -0.462343      1.499263
  O       0.613332     -1.204598     -1.604956
  O      -1.141207     -1.677312      1.245063
  O      -2.168278      1.835939      0.085498
  O       1.119358      1.451237     -1.150546
  H       0.934545     -0.996271      0.939387
  H      -0.272910     -0.986542     -1.375619
  H      -1.612834     -0.917869      1.511802
  H      -1.449216      1.935730     -0.492875
  H       1.293497      0.856606     -0.427320
  H       1.705830     -0.418258      2.413279
  H       1.253049     -1.010607     -2.279838
  H      -0.685308     -2.380687      1.682024
  H      -2.860054      2.491907      0.269367
  H       1.697263      1.548501     -1.888615
15
Coordinates from ORCA-job 05_H2O_5 E -382.075085811354
  O       1.518677     -0.487689      1.511074
  O       0.612037     -1.204724     -1.612335
  O      -1.140236     -1.667174      1.254572
  O      -2.193181      1.850631      0.068761
  O       1.107603      1.464235     -1.141713
  H       0.972750     -1.029149      0.953411
  H      -0.273927     -0.976913     -1.385318
  H      -1.616001     -0.905110      1.515100
  H      -1.462173      1.947290     -0.500629
  H       1.286615      0.864679     -0.421719
  H       1.739978     -0.456066      2.422134
  H       1.254459     -1.030864     -2.290532
  H      -0.689779     -2.371318      1.692971
  H      -2.887719      2.503363      0.237723
  H       1.688122      1.564240     -1.877584
15
Coordinates from ORCA-job 05_H2O_5 E -382.075282681421
  O       1.546356     -0.513437      1.522371
  O       0.611379     -1.205264     -1.618698
  O      -1.138523     -1.655441      1.262944
  O      -2.217566      1.864627      0.052213
  O       1.094563      1.477238     -1.132266
  H       1.011217     -1.062610      0.966167
  H      -0.274822     -0.967404     -1.394501
  H      -1.618228     -0.890928      1.517175
  H      -1.474645      1.958510     -0.507896
  H       1.279074      0.872729     -0.415625
  H       1.772668     -0.494028      2.430378
  H       1.256393     -1.052402     -2.300107
  H      -0.693647     -2.360254      1.703040
  H      -2.914344      2.514140      0.206866
  H       1.677348      1.579957     -1.866145
15
Coordinates from ORCA-job 05_H2O_5 E -382.075463628974
  O       1.573186     -0.539897      1.534183
  O       0.610134     -1.204829     -1.624464
  O      -1.135117     -1.643551      1.271057
  O      -2.241784      1.878417      0.035270
  O       1.081695      1.490221     -1.122841
  H       1.049764     -1.096765      0.978510
  H      -0.276356     -0.957205     -1.403425
  H      -1.618958     -0.876733      1.518831
  H      -1.487342      1.969987     -0.515272
  H       1.271833      0.881017     -0.409504
  H       1.802839     -0.532814      2.439350
  H       1.257111     -1.073262     -2.309195
  H      -0.695523     -2.348674      1.713384
  H      -2.940683      2.524869      0.175362
  H       1.666427      1.594651     -1.855332
15
Coordinates from ORCA-job 05_H2O_5 E -382.075961376367
  O       1.597732     -0.567492      1.546732
  O       0.609012     -1.204274     -1.628197
  O      -1.128199     -1.630257      1.276877
  O      -2.264773      1.890972      0.018379
  O       1.068149      1.503997     -1.113569
  H       1.088162     -1.132934      0.989635
  H      -0.278250     -0.947978     -1.410684
  H      -1.615981     -0.860978      1.517425
  H      -1.499499      1.982066     -0.522171
  H       1.264245      0.890427     -0.403455
  H       1.826397     -0.572959      2.450074
  H       1.255595     -1.093882     -2.317554
  H      -0.693735     -2.334246      1.723594
  H      -2.965241      2.534652      0.144705
  H       1.653610      1.608319     -1.845876
15
Coordinates from ORCA-job 05_H2O_5 E -382.073666600573
  O       1.603858     -0.564191      1.543873
  O       0.605571     -1.202568     -1.645485
  O      -1.140909     -1.640941      1.299841
  O      -2.275326      1.900259      0.014058
  O       1.079802      1.499571     -1.113152
  H       1.081495     -1.120901      0.991190
  H      -0.278931     -0.940631     -1.422272
  H      -1.631134     -0.874783      1.543261
  H      -1.508303      1.980699     -0.528205
  H       1.271967      0.883815     -0.403622
  H       1.855587     -0.574414      2.440016
  H       1.260489     -1.088293     -2.326449
  H      -0.702644     -2.348746      1.735867
  H      -2.980305      2.541221      0.131785
  H       1.676010      1.615334     -1.834792
15
Coordinates from ORCA-job 05_H2O_5 E -382.072128036484
  O       1.627483     -0.575710      1.550642
  O       0.598627     -1.201745     -1.658617
  O      -1.149612     -1.642495      1.319397
  O      -2.296888      1.914989     -0.001005
  O       1.079256      1.508731     -1.105722
  H       1.104762     -1.135109      1.001685
  H      -0.284762     -0.928810     -1.436133
  H      -1.643437     -0.876382      1.560899
  H      -1.519670      1.985776     -0.536203
  H       1.274346      0.887983     -0.399572
  H       1.902704     -0.598603      2.437220
  H       1.261578     -1.104526     -2.335132
  H      -0.714866     -2.356189      1.748123
  H      -3.005886      2.551656      0.098634
  H       1.683590      1.635867     -1.818300
15
Coordinates from ORCA-job 05_H2O_5 E -382.070174829376
  O       1.643437     -0.576970      1.551663
  O       0.591966     -1.202177     -1.672739
  O      -1.162971     -1.650783      1.341106
  O      -2.311439      1.927105     -0.011059
  O       1.085065      1.514397     -1.100206
  H       1.115009     -1.135170      1.008009
  H      -0.289902     -0.921439     -1.448561
  H      -1.659086     -0.885511      1.582907
  H      -1.527106      1.987361     -0.541922
  H       1.280371      0.888838     -0.397309
  H       1.946337     -0.609965      2.426878
  H       1.263105     -1.114581     -2.342648
  H      -0.730213     -2.370857      1.759792
  H      -3.025638      2.559903      0.071874
  H       1.698289      1.655283     -1.801870
15
Coordinates from ORCA-job 05_H2O_5 E -382.068162333761
  O       1.644487     -0.563917      1.547448
  O       0.585510     -1.201421     -1.685777
  O      -1.177026     -1.666302      1.360330
  O      -2.314114      1.932854     -0.012955
  O       1.099978      1.510645     -1.100955
  H       1.102150     -1.114620      1.008380
  H      -0.294095     -0.919123     -1.456608
  H      -1.673603     -0.903389      1.605765
  H      -1.529437      1.983101     -0.545139
  H       1.290823      0.882945     -0.398877
  H       1.971346     -0.602191      2.413346
  H       1.263531     -1.107836     -2.347939
  H      -0.741858     -2.391434      1.767997
  H      -3.032597      2.562742      0.062690
  H       1.722131      1.663380     -1.791792
15
Coordinates from ORCA-job 05_H2O_5 E -382.066175636029
  O       1.655583     -0.560703      1.547190
  O       0.577580     -1.201227     -1.700330
  O      -1.189966     -1.677624      1.383070
  O      -2.324884      1.943147     -0.021936
  O       1.109585      1.514665     -1.096649
  H       1.104977     -1.108354      1.012849
  H      -0.300323     -0.913469     -1.467786
  H      -1.688067     -0.915844      1.629365
  H      -1.534886      1.983014     -0.550399
  H       1.298561      0.882179     -0.397629
  H       2.009356     -0.609350      2.400407
  H       1.262790     -1.112560     -2.355742
  H      -0.755278     -2.408105      1.780290
  H      -3.048824      2.568491      0.038399
  H       1.741020      1.681174     -1.775184
15
Coordinates from ORCA-job 05_H2O_5 E -382.064741624728
  O       1.641467     -0.541829      1.539230
  O       0.573966     -1.199426     -1.709004
  O      -1.198015     -1.693536      1.395794
  O      -2.316602      1.941787     -0.016715
  O       1.127750      1.504140     -1.102594
  H       1.074600     -1.077253      1.006737
  H      -0.302062     -0.915829     -1.469535
  H      -1.694901     -0.935040      1.647097
  H      -1.532529      1.975494     -0.551171
  H       1.308393      0.871960     -0.402082
  H       2.007318     -0.590504      2.388641
  H       1.262449     -1.091935     -2.358004
  H      -0.756873     -2.425087      1.784956
  H      -3.043715      2.565971      0.045906
  H       1.765980      1.676519     -1.773342
15
Coordinates from ORCA-job 05_H2O_5 E -382.063049675956
  O       1.650714     -0.543462      1.542984
  O       0.562753     -1.193947     -1.727182
  O      -1.204214     -1.707213      1.424116
  O      -2.330258      1.953890     -0.030086
  O       1.142739      1.506773     -1.101021
  H       1.074794     -1.071880      1.013208
  H      -0.309946     -0.906997     -1.481392
  H      -1.704182     -0.950487      1.674889
  H      -1.542690      1.977727     -0.560835
  H       1.318627      0.870263     -0.402331
  H       2.035812     -0.605938      2.382520
  H       1.255100     -1.084137     -2.371790
  H      -0.759914     -2.440966      1.805097
  H      -3.063603      2.572334      0.017029
  H       1.791493      1.689474     -1.759290
15
Coordinates from ORCA-job 05_H2O_5 E -382.064160449563
  O       1.628831     -0.543680      1.544662
  O       0.562512     -1.185530     -1.726642
  O      -1.187573     -1.710870      1.421073
  O      -2.320955      1.947058     -0.025946
  O       1.154335      1.494996     -1.112480
  H       1.049476     -1.061058      1.008795
  H      -0.308261     -0.908581     -1.474429
  H      -1.687938     -0.956517      1.671952
  H      -1.544676      1.976976     -0.564281
  H       1.323437      0.864021     -0.408104
  H       1.987653     -0.600737      2.399719
  H       1.245120     -1.048841     -2.375933
  H      -0.732803     -2.435010      1.810126
  H      -3.053093      2.567937      0.035282
  H       1.801160      1.665269     -1.777878
15
Coordinates from ORCA-job 05_H2O_5 E -382.063008352369
  O       1.640106     -0.555601      1.553182
  O       0.549500     -1.176169     -1.747174
  O      -1.186412     -1.724271      1.453095
  O      -2.340278      1.963293     -0.044815
  O       1.170280      1.499389     -1.111874
  H       1.056309     -1.065627      1.019081
  H      -0.315989     -0.896408     -1.487415
  H      -1.692663     -0.971440      1.700682
  H      -1.561357      1.985148     -0.578344
  H       1.334105      0.863927     -0.408853
  H       2.009048     -0.627120      2.403479
  H       1.232219     -1.035008     -2.395728
  H      -0.726234     -2.448445      1.838284
  H      -3.078606      2.577851     -0.000480
  H       1.827198      1.675914     -1.767205
15
Coordinates from ORCA-job 05_H2O_5 E -382.063953531457
  O       1.618489     -0.554218      1.555623
  O       0.549737     -1.166920     -1.744625
  O      -1.169946     -1.725358      1.446581
  O      -2.330773      1.954137     -0.039508
  O       1.179741      1.486256     -1.121771
  H       1.030126     -1.054396      1.013431
  H      -0.315919     -0.897603     -1.478871
  H      -1.674172     -0.974394      1.695259
  H      -1.560530      1.981537     -0.579579
  H       1.338494      0.856983     -0.413594
  H       1.965066     -0.622682      2.417440
  H       1.223295     -1.001469     -2.396240
  H      -0.702050     -2.438097      1.838893
  H      -3.069027      2.570925      0.016842
  H       1.834692      1.650732     -1.783966
15
Coordinates from ORCA-job 05_H2O_5 E -382.063152390537
  O       1.628233     -0.569491      1.565298
  O       0.536538     -1.156054     -1.764627
  O      -1.164428     -1.739827      1.477559
  O      -2.350009      1.971508     -0.058851
  O       1.196842      1.489318     -1.123171
  H       1.038773     -1.062197      1.025209
  H      -0.322146     -0.884531     -1.491250
  H      -1.676730     -0.990440      1.722124
  H      -1.580373      1.992944     -0.595447
  H       1.349271      0.856346     -0.415422
  H       1.975844     -0.647580      2.427845
  H       1.207676     -0.982180     -2.417301
  H      -0.689224     -2.451625      1.868642
  H      -3.093215      2.582967     -0.016026
  H       1.860171      1.656273     -1.778669
