3
Coordinates from ORCA-job 01_H2O E -76.175834971477
  O       0.000000      0.000000      0.124348
  H       0.000000     -1.431393     -0.986748
  H       0.000000      1.431393     -0.986748
3
Coordinates from ORCA-job 01_H2O E -76.212413285457
  O       0.000000     -0.000000      0.093973
  H       0.000000     -1.325267     -0.971560
  H       0.000000      1.325267     -0.971560
3
Coordinates from ORCA-job 01_H2O E -76.252777898291
  O       0.000000      0.000000      0.062027
  H       0.000000     -1.220452     -0.955588
  H       0.000000      1.220452     -0.955588
3
Coordinates from ORCA-job 01_H2O E -76.296556412688
  O       0.000000      0.000000      0.025547
  H       0.000000     -1.120431     -0.937347
  H       0.000000      1.120431     -0.937347
3
Coordinates from ORCA-job 01_H2O E -76.342772167952
  O       0.000000      0.000000     -0.015619
  H       0.000000     -1.025768     -0.916765
  H       0.000000      1.025768     -0.916765
3
Coordinates from ORCA-job 01_H2O E -76.389192578834
  O       0.000000     -0.000000     -0.061161
  H       0.000000     -0.936452     -0.893994
  H       0.000000      0.936452     -0.893994
3
Coordinates from ORCA-job 01_H2O E -76.431622427050
  O       0.000000     -0.000000     -0.110926
  H       0.000000     -0.852613     -0.869111
  H       0.000000      0.852613     -0.869111
3
Coordinates from ORCA-job 01_H2O E -76.461386034144
  O       0.000000     -0.000000     -0.166201
  H       0.000000     -0.776445     -0.841474
  H       0.000000      0.776445     -0.841474
3
Coordinates from ORCA-job 01_H2O E -76.463993847874
  O       0.000000      0.000000     -0.240684
  H       0.000000     -0.735891     -0.804232
  H       0.000000      0.735891     -0.804232
3
Coordinates from ORCA-job 01_H2O E -76.467216306200
  O       0.000000     -0.000000     -0.216740
  H       0.000000     -0.771311     -0.816204
  H       0.000000      0.771311     -0.816204
3
Coordinates from ORCA-job 01_H2O E -76.467336968259
  O       0.000000      0.000002     -0.218614
  H       0.000000     -0.764666     -0.815268
  H       0.000000      0.764664     -0.815266
3
Coordinates from ORCA-job 01_H2O E -76.467340843039
  O       0.000000     -0.000058     -0.219482
  H       0.000000     -0.764113     -0.814810
  H       0.000000      0.764171     -0.814856
3
Coordinates from ORCA-job 01_H2O E -76.467335683477
  O       0.000000      0.001185     -0.219494
  H       0.000000     -0.764647     -0.815289
  H       0.000000      0.763462     -0.814366
3
Coordinates from ORCA-job 01_H2O E -76.467340735947
  O       0.000000      0.000000     -0.219401
  H       0.000000     -0.764107     -0.814874
  H       0.000000      0.764106     -0.814874
3
Coordinates from ORCA-job 01_H2O E -76.467340748787
  O       0.000000      0.000000     -0.219409
  H       0.000000     -0.764113     -0.814870
  H       0.000000      0.764112     -0.814870
