6
Coordinates from ORCA-job 02_H2O_2 E -152.351398206947
  O       0.126296      2.818638      0.000000
  H      -1.550121      3.502286      0.000000
  H      -0.112133      1.010449      0.000000
  O      -0.117432     -2.680353      0.000000
  H       0.760788     -3.353712     -1.436577
  H       0.760788     -3.353712      1.436577
6
Coordinates from ORCA-job 02_H2O_2 E -152.402091092229
  O       0.116050      2.771062     -0.000000
  H      -1.504612      3.379966     -0.000000
  H      -0.110335      1.040067     -0.000000
  O      -0.112204     -2.649750      0.000000
  H       0.739644     -3.298874     -1.364239
  H       0.739644     -3.298875      1.364239
6
Coordinates from ORCA-job 02_H2O_2 E -152.456647853043
  O       0.104559      2.723591      0.000000
  H      -1.458256      3.259160     -0.000000
  H      -0.109029      1.069621      0.000000
  O      -0.105708     -2.619393     -0.000000
  H       0.718310     -3.244691     -1.292487
  H       0.718310     -3.244691      1.292487
6
Coordinates from ORCA-job 02_H2O_2 E -152.514927403963
  O       0.090793      2.674506      0.000000
  H      -1.410372      3.143556     -0.000000
  H      -0.108915      1.097593      0.000000
  O      -0.097495     -2.590617     -0.000000
  H       0.697089     -3.190721     -1.222133
  H       0.697089     -3.190721      1.222133
6
Coordinates from ORCA-job 02_H2O_2 E -152.576623909088
  O       0.074888      2.623557      0.000000
  H      -1.361104      3.033694     -0.000000
  H      -0.110074      1.123808      0.000000
  O      -0.087546     -2.563572      0.000000
  H       0.676011     -3.136946     -1.153284
  H       0.676011     -3.136946      1.153284
6
Coordinates from ORCA-job 02_H2O_2 E -152.641108728258
  O       0.057118      2.570702     -0.000000
  H      -1.310700      2.929525     -0.000000
  H      -0.112400      1.148277     -0.000000
  O      -0.075953     -2.538236      0.000000
  H       0.655061     -3.083336     -1.085956
  H       0.655061     -3.083336      1.085956
6
Coordinates from ORCA-job 02_H2O_2 E -152.707181566373
  O       0.037773      2.515820     -0.000000
  H      -1.259382      2.830967     -0.000000
  H      -0.115834      1.171014     -0.000000
  O      -0.062814     -2.514583      0.000000
  H       0.634222     -3.029811     -1.020194
  H       0.634222     -3.029811      1.020194
6
Coordinates from ORCA-job 02_H2O_2 E -152.772894373073
  O       0.017093      2.458668     -0.000000
  H      -1.207362      2.738134     -0.000000
  H      -0.120355      1.192008      0.000000
  O      -0.048107     -2.492565      0.000000
  H       0.613459     -2.976324     -0.956129
  H       0.613459     -2.976324      0.956129
6
Coordinates from ORCA-job 02_H2O_2 E -152.835275366519
  O      -0.004754      2.399137     -0.000000
  H      -1.154807      2.651132     -0.000000
  H      -0.125944      1.211282      0.000000
  O      -0.031719     -2.472071      0.000000
  H       0.592705     -2.922942     -0.893916
  H       0.592705     -2.922942      0.893916
6
Coordinates from ORCA-job 02_H2O_2 E -152.889259953764
  O      -0.027654      2.336305     -0.000000
  H      -1.101963      2.570521     -0.000000
  H      -0.132480      1.228814     -0.000000
  O      -0.013499     -2.452960      0.000000
  H       0.571891     -2.869542     -0.834178
  H       0.571891     -2.869542      0.834178
6
Coordinates from ORCA-job 02_H2O_2 E -152.926387816044
  O      -0.052090      2.268314      0.000000
  H      -1.048872      2.499488     -0.000000
  H      -0.140104      1.243733      0.000000
  O       0.007327     -2.435672      0.000000
  H       0.550963     -2.816133     -0.778726
  H       0.550963     -2.816133      0.778726
6
Coordinates from ORCA-job 02_H2O_2 E -152.935329396198
  O      -0.084333      2.185569     -0.000000
  H      -0.994708      2.468128      0.000001
  H      -0.150774      1.244209     -0.000000
  O       0.040191     -2.423574     -0.000000
  H       0.528906     -2.765368     -0.747199
  H       0.528905     -2.765368      0.747199
6
Coordinates from ORCA-job 02_H2O_2 E -152.924074141630
  O      -0.091343      2.224266      0.000002
  H      -0.993786      2.520420     -0.000003
  H      -0.154521      1.155156      0.000001
  O       0.062691     -2.435157      0.000001
  H       0.522572     -2.760544     -0.727365
  H       0.522574     -2.760544      0.727364
6
Coordinates from ORCA-job 02_H2O_2 E -152.931701835447
  O      -0.077728      2.186878      0.000002
  H      -1.011643      2.509298     -0.000003
  H      -0.142652      1.170236      0.000002
  O       0.043176     -2.400558      0.000000
  H       0.528515     -2.761129     -0.804995
  H       0.528518     -2.761129      0.804994
6
Coordinates from ORCA-job 02_H2O_2 E -152.926845565718
  O      -0.044558      2.094849      0.000002
  H      -1.031204      2.399101     -0.000003
  H      -0.111636      1.203896      0.000001
  O       0.033671     -2.352362      0.000001
  H       0.510956     -2.700944     -0.748722
  H       0.510958     -2.700943      0.748721
6
Coordinates from ORCA-job 02_H2O_2 E -152.928860890029
  O      -0.093581      2.139903      0.000001
  H      -0.948768      2.377069     -0.000002
  H      -0.154017      1.191918      0.000001
  O       0.025614     -2.353666     -0.000001
  H       0.519468     -2.705813     -0.761723
  H       0.519470     -2.705815      0.761724
6
Coordinates from ORCA-job 02_H2O_2 E -152.930538782915
  O      -0.065672      2.192120      0.000001
  H      -1.024413      2.500651     -0.000001
  H      -0.132139      1.143597      0.000001
  O       0.039942     -2.398176      0.000000
  H       0.525234     -2.747298     -0.768858
  H       0.525235     -2.747298      0.768858
6
Coordinates from ORCA-job 02_H2O_2 E -152.936497539613
  O      -0.058923      2.109015     -0.000002
  H      -1.003572      2.401170      0.000003
  H      -0.123641      1.148437     -0.000001
  O       0.027279     -2.338963      0.000002
  H       0.513524     -2.688033     -0.759879
  H       0.513519     -2.688030      0.759877
6
Coordinates from ORCA-job 02_H2O_2 E -152.937262285549
  O      -0.055786      2.035783      0.000009
  H      -0.977766      2.330859     -0.000014
  H      -0.118649      1.067713     -0.000002
  O       0.020837     -2.263407     -0.000033
  H       0.499753     -2.613645     -0.766155
  H       0.499797     -2.613706      0.766194
6
Coordinates from ORCA-job 02_H2O_2 E -152.937673230636
  O      -0.042610      1.956918     -0.000081
  H      -0.963348      2.252512      0.000125
  H      -0.107330      0.989612      0.000091
  O       0.007836     -2.183635      0.000561
  H       0.487122     -2.536409     -0.765228
  H       0.486516     -2.535402      0.764532
6
Coordinates from ORCA-job 02_H2O_2 E -152.937467423686
  O      -0.028623      1.879215     -0.001499
  H      -0.952002      2.164544      0.002383
  H      -0.089472      0.916052      0.001523
  O      -0.010976     -2.102389      0.009640
  H       0.479979     -2.465719     -0.763663
  H       0.469282     -2.448107      0.751616
6
Coordinates from ORCA-job 02_H2O_2 E -152.938689467919
  O      -0.015415      1.802207     -0.000021
  H      -0.938387      2.098101     -0.000135
  H      -0.082218      0.835639     -0.000089
  O      -0.017575     -2.027061     -0.000255
  H       0.460711     -2.382381     -0.763076
  H       0.461071     -2.382909      0.763577
6
Coordinates from ORCA-job 02_H2O_2 E -152.939306693966
  O      -0.003798      1.723891     -0.000186
  H      -0.921525      2.031586      0.000148
  H      -0.077087      0.753682      0.000130
  O      -0.023599     -1.951087      0.000894
  H       0.447557     -2.308058     -0.770271
  H       0.446639     -2.306417      0.769285
6
Coordinates from ORCA-job 02_H2O_2 E -152.939974183819
  O       0.008362      1.644858     -0.000308
  H      -0.906068      1.957429      0.000349
  H      -0.067143      0.673014      0.000301
  O      -0.033778     -1.873510      0.001702
  H       0.434320     -2.230704     -0.774226
  H       0.432494     -2.227490      0.772182
6
Coordinates from ORCA-job 02_H2O_2 E -152.938308209044
  O       0.024089      1.594204      0.000357
  H      -0.923457      1.796776     -0.000997
  H       0.021039      0.652300     -0.001457
  O      -0.103337     -1.814042     -0.005360
  H       0.422049     -2.137516     -0.727453
  H       0.427804     -2.148124      0.734911
6
Coordinates from ORCA-job 02_H2O_2 E -152.936706254060
  O      -0.005894      1.661741     -0.000769
  H      -0.973279      1.825945      0.002826
  H       0.102976      0.645714      0.000117
  O      -0.058910     -1.812249      0.008232
  H       0.406761     -2.196770     -0.795518
  H       0.396533     -2.180786      0.785112
6
Coordinates from ORCA-job 02_H2O_2 E -152.938015003073
  O       0.000373      1.600496      0.051368
  H      -0.954538      1.773459     -0.077258
  H       0.103088      0.589001      0.034856
  O      -0.082378     -1.763191      0.026244
  H       0.361354     -2.126338     -0.794406
  H       0.440287     -2.129829      0.759197
6
Coordinates from ORCA-job 02_H2O_2 E -152.941173069030
  O       0.026060      1.520584      0.046030
  H      -0.912544      1.719122     -0.073558
  H       0.047698      0.549664      0.033475
  O      -0.093445     -1.738740      0.017736
  H       0.357263     -2.045912     -0.784163
  H       0.443155     -2.061121      0.760480
6
Coordinates from ORCA-job 02_H2O_2 E -152.941953069782
  O       0.036681      1.441300      0.040164
  H      -0.901430      1.657374     -0.063672
  H       0.056887      0.469006      0.027649
  O      -0.104225     -1.660110      0.016238
  H       0.352706     -1.976254     -0.776668
  H       0.427568     -1.987720      0.756288
6
Coordinates from ORCA-job 02_H2O_2 E -152.942131075726
  O       0.048115      1.374884      0.040658
  H      -0.890856      1.571514     -0.063900
  H       0.071193      0.402158      0.026518
  O      -0.096143     -1.576761      0.015600
  H       0.329689     -1.906263     -0.792049
  H       0.406188     -1.921936      0.773173
6
Coordinates from ORCA-job 02_H2O_2 E -152.942224198725
  O       0.059501      1.308602      0.003768
  H      -0.881575      1.540280     -0.003783
  H       0.066797      0.331296     -0.002805
  O      -0.117069     -1.513400      0.002431
  H       0.364114     -1.865764     -0.758973
  H       0.376419     -1.857417      0.759362
6
Coordinates from ORCA-job 02_H2O_2 E -152.942465297007
  O       0.049017      1.367753     -0.009799
  H      -0.891823      1.600621      0.016283
  H       0.056807      0.389668     -0.012049
  O      -0.099678     -1.569961     -0.001913
  H       0.381312     -1.928947     -0.760503
  H       0.372552     -1.915536      0.767980
6
Coordinates from ORCA-job 02_H2O_2 E -152.942520650493
  O       0.051554      1.355936     -0.001275
  H      -0.888371      1.586586      0.002315
  H       0.054111      0.379274     -0.005055
  O      -0.092900     -1.552605      0.001003
  H       0.368926     -1.916924     -0.768491
  H       0.374867     -1.908671      0.771503
6
Coordinates from ORCA-job 02_H2O_2 E -152.942558789845
  O       0.052367      1.349895      0.001825
  H      -0.885180      1.589637     -0.003081
  H       0.045606      0.373186     -0.001849
  O      -0.088539     -1.543789      0.001956
  H       0.366216     -1.916061     -0.767761
  H       0.377718     -1.909272      0.768910
6
Coordinates from ORCA-job 02_H2O_2 E -152.942611961854
  O       0.051981      1.346127      0.001287
  H      -0.879515      1.608682     -0.003858
  H       0.024030      0.369201      0.000009
  O      -0.074590     -1.534780      0.001816
  H       0.367046     -1.926051     -0.765653
  H       0.379235     -1.919583      0.766400
6
Coordinates from ORCA-job 02_H2O_2 E -152.942629085876
  O       0.051431      1.348710      0.005397
  H      -0.877472      1.619074     -0.011045
  H       0.015403      0.372190      0.004106
  O      -0.071391     -1.538831      0.003285
  H       0.365362     -1.930744     -0.766769
  H       0.384854     -1.926802      0.765027
6
Coordinates from ORCA-job 02_H2O_2 E -152.942651686917
  O       0.054041      1.334516      0.009420
  H      -0.867088      1.645410     -0.017149
  H      -0.012188      0.357041      0.007732
  O      -0.071995     -1.549169      0.005406
  H       0.370100     -1.924849     -0.771929
  H       0.395317     -1.919353      0.766519
6
Coordinates from ORCA-job 02_H2O_2 E -152.942648843065
  O       0.054719      1.322938     -0.009626
  H      -0.843453      1.664890      0.012474
  H      -0.049270      0.341619     -0.009789
  O      -0.089152     -1.571024      0.001363
  H       0.398832     -1.912087     -0.764973
  H       0.396512     -1.902739      0.770551
6
Coordinates from ORCA-job 02_H2O_2 E -152.942689386018
  O       0.063940      1.319253      0.013144
  H      -0.847418      1.642827     -0.025785
  H      -0.042507      0.343181      0.012712
  O      -0.099735     -1.569937      0.006968
  H       0.380451     -1.893717     -0.767412
  H       0.413457     -1.898010      0.760372
6
Coordinates from ORCA-job 02_H2O_2 E -152.942711407740
  O       0.058170      1.304564      0.004370
  H      -0.842572      1.661746     -0.013296
  H      -0.049094      0.336136      0.005895
  O      -0.096728     -1.570722      0.005493
  H       0.388264     -1.892581     -0.768578
  H       0.410147     -1.895548      0.766116
6
Coordinates from ORCA-job 02_H2O_2 E -152.942758329495
  O       0.062793      1.301054      0.002330
  H      -0.833065      1.667619     -0.009730
  H      -0.069302      0.330025      0.003861
  O      -0.102490     -1.580792      0.005689
  H       0.395925     -1.886901     -0.767262
  H       0.414326     -1.887407      0.765112
6
Coordinates from ORCA-job 02_H2O_2 E -152.942750425765
  O       0.063949      1.302607      0.000808
  H      -0.835031      1.659535     -0.007495
  H      -0.062348      0.331268      0.002433
  O      -0.108203     -1.583715      0.005214
  H       0.396575     -1.882612     -0.767604
  H       0.413244     -1.883486      0.766644
6
Coordinates from ORCA-job 02_H2O_2 E -152.942761508571
  O       0.064928      1.295000     -0.000224
  H      -0.828006      1.667205     -0.006464
  H      -0.076064      0.325998      0.002126
  O      -0.108709     -1.587492      0.005050
  H       0.400088     -1.877950     -0.766741
  H       0.415950     -1.879163      0.766252
6
Coordinates from ORCA-job 02_H2O_2 E -152.942763641537
  O       0.064916      1.294805     -0.002279
  H      -0.827580      1.669163     -0.003131
  H      -0.077596      0.326030      0.000427
  O      -0.108228     -1.588632      0.004546
  H       0.401918     -1.879204     -0.766943
  H       0.414757     -1.878565      0.767380
6
Coordinates from ORCA-job 02_H2O_2 E -152.942763309618
  O       0.065155      1.293769     -0.003049
  H      -0.826663      1.669445     -0.001853
  H      -0.078702      0.325235     -0.000146
  O      -0.109608     -1.590127      0.004164
  H       0.403126     -1.878152     -0.766534
  H       0.414880     -1.876574      0.767418
6
Coordinates from ORCA-job 02_H2O_2 E -152.942763273275
  O       0.065216      1.293676     -0.003560
  H      -0.826644      1.669100     -0.000999
  H      -0.078623      0.325162     -0.000507
  O      -0.109605     -1.590009      0.003874
  H       0.403405     -1.878302     -0.766481
  H       0.414439     -1.876030      0.767672
