9
Coordinates from ORCA-job 03_H2O_3 E -229.426905753693
  O      -1.476811     -0.647642     -0.082126
  H      -0.613415     -1.087457     -0.037065
  H      -2.026236     -1.086841      0.568502
  O       1.305672     -0.945117     -0.091536
  H       1.973931     -1.196903      0.547209
  H       1.226840      0.019839     -0.021857
  O       0.169678      1.599733      0.108456
  H      -0.629586      1.051269      0.060063
  H       0.080159      2.244313     -0.595195
9
Coordinates from ORCA-job 03_H2O_3 E -229.427589756228
  O      -1.479686     -0.645469     -0.083461
  H      -0.605324     -1.088818     -0.038737
  H      -2.034832     -1.088525      0.572970
  O       1.305942     -0.948106     -0.093902
  H       1.980375     -1.203681      0.550429
  H       1.223679      0.028059     -0.022045
  O       0.172282      1.600869      0.110186
  H      -0.635289      1.044259      0.060269
  H       0.083085      2.252606     -0.599260
9
Coordinates from ORCA-job 03_H2O_3 E -229.427711654690
  O      -1.469827     -0.636582     -0.084410
  H      -0.592704     -1.080273     -0.040365
  H      -2.023810     -1.081431      0.573334
  O       1.294020     -0.943408     -0.095608
  H       1.968818     -1.198421      0.550147
  H       1.209842      0.035217     -0.021533
  O       0.174429      1.587603      0.112232
  H      -0.634690      1.028551      0.060658
  H       0.084154      2.239938     -0.598004
9
Coordinates from ORCA-job 03_H2O_3 E -229.427771453379
  O      -1.455386     -0.624723     -0.085635
  H      -0.575093     -1.067845     -0.042196
  H      -2.006649     -1.070070      0.573303
  O       1.277424     -0.936031     -0.097898
  H       1.950735     -1.190162      0.548975
  H       1.189924      0.044922     -0.020710
  O       0.176663      1.568682      0.115011
  H      -0.633407      1.006315      0.060961
  H       0.086022      2.220107     -0.595362
9
Coordinates from ORCA-job 03_H2O_3 E -229.427780554513
  O      -1.455492     -0.625300     -0.085903
  H      -0.574728     -1.067802     -0.042096
  H      -2.006421     -1.069355      0.573586
  O       1.277908     -0.935821     -0.098244
  H       1.950199     -1.190279      0.548944
  H       1.189492      0.045228     -0.020715
  O       0.176227      1.568968      0.115314
  H      -0.633563      1.005893      0.060859
  H       0.086611      2.219663     -0.595295
9
Coordinates from ORCA-job 03_H2O_3 E -229.427839095987
  O      -1.455079     -0.629864     -0.089428
  H      -0.570751     -1.065963     -0.042062
  H      -2.003004     -1.062369      0.577365
  O       1.281072     -0.932873     -0.102592
  H       1.944180     -1.190644      0.549801
  H       1.183894      0.047754     -0.020858
  O       0.172024      1.569924      0.119352
  H      -0.634053      1.000830      0.060244
  H       0.091948      2.214398     -0.595372
9
Coordinates from ORCA-job 03_H2O_3 E -229.427889130396
  O      -1.454530     -0.634632     -0.094645
  H      -0.566633     -1.063385     -0.042970
  H      -1.997911     -1.054527      0.582838
  O       1.284325     -0.929557     -0.108768
  H       1.936742     -1.190156      0.552148
  H       1.177319      0.049828     -0.021146
  O       0.167431      1.570696      0.125303
  H      -0.633967      0.995288      0.059920
  H       0.097456      2.207640     -0.596229
9
Coordinates from ORCA-job 03_H2O_3 E -229.427962826131
  O      -1.454024     -0.642812     -0.105839
  H      -0.560307     -1.058617     -0.046019
  H      -1.986083     -1.040238      0.594185
  O       1.290138     -0.924107     -0.121718
  H       1.921793     -1.187433      0.558359
  H       1.166021      0.052231     -0.021926
  O       0.159543      1.572225      0.138073
  H      -0.633192      0.986349      0.059973
  H       0.106344      2.193596     -0.598636
9
Coordinates from ORCA-job 03_H2O_3 E -229.428005782822
  O      -1.454480     -0.649670     -0.117104
  H      -0.556642     -1.055286     -0.050036
  H      -1.973218     -1.027892      0.605166
  O       1.295589     -0.920304     -0.134518
  H       1.907303     -1.183414      0.565634
  H       1.158383      0.052832     -0.022931
  O       0.153142      1.574302      0.150971
  H      -0.632456      0.980920      0.060798
  H       0.112610      2.179705     -0.601529
9
Coordinates from ORCA-job 03_H2O_3 E -229.428022397843
  O      -1.455173     -0.651500     -0.121424
  H      -0.557222     -1.055782     -0.052166
  H      -1.968297     -1.024596      0.609183
  O       1.297611     -0.920032     -0.139291
  H       1.902407     -1.181858      0.569144
  H       1.159309      0.052106     -0.023429
  O       0.151516      1.575755      0.155949
  H      -0.632965      0.982078      0.061686
  H       0.113046      2.175024     -0.603202
9
Coordinates from ORCA-job 03_H2O_3 E -229.428035940305
  O      -1.454836     -0.650695     -0.122325
  H      -0.558260     -1.057713     -0.053174
  H      -1.966655     -1.024347      0.609893
  O       1.297174     -0.920459     -0.140290
  H       1.900879     -1.181700      0.570379
  H       1.163195      0.051993     -0.023607
  O       0.151740      1.575690      0.157095
  H      -0.634593      0.984732      0.062448
  H       0.111589      2.173693     -0.603968
9
Coordinates from ORCA-job 03_H2O_3 E -229.428048723902
  O      -1.453590     -0.649690     -0.122258
  H      -0.558335     -1.060069     -0.053622
  H      -1.965593     -1.023610      0.609866
  O       1.295992     -0.920098     -0.140426
  H       1.899134     -1.182384      0.570572
  H       1.167215      0.053128     -0.023743
  O       0.151695      1.574679      0.157195
  H      -0.637136      0.986700      0.063041
  H       0.110851      2.172538     -0.604172
9
Coordinates from ORCA-job 03_H2O_3 E -229.428062243127
  O      -1.451694     -0.650118     -0.122810
  H      -0.557187     -1.062894     -0.054025
  H      -1.963633     -1.020497      0.610805
  O       1.295388     -0.918239     -0.141567
  H       1.895101     -1.183897      0.570729
  H       1.170951      0.055709     -0.024077
  O       0.150050      1.573484      0.158051
  H      -0.640818      0.987731      0.063609
  H       0.112074      2.169914     -0.604265
9
Coordinates from ORCA-job 03_H2O_3 E -229.428072270468
  O      -1.449977     -0.652061     -0.123806
  H      -0.555363     -1.065063     -0.054303
  H      -1.961700     -1.016306      0.612488
  O       1.295780     -0.915518     -0.143327
  H       1.890396     -1.185854      0.570895
  H       1.172993      0.058691     -0.024520
  O       0.147344      1.572750      0.159370
  H      -0.644076      0.987513      0.063964
  H       0.114835      2.167041     -0.604310
9
Coordinates from ORCA-job 03_H2O_3 E -229.428075772873
  O      -1.449385     -0.653618     -0.124512
  H      -0.554206     -1.065375     -0.054536
  H      -1.960750     -1.014076      0.613689
  O       1.296404     -0.913918     -0.144450
  H       1.887929     -1.186789      0.571123
  H       1.172731      0.060101     -0.024787
  O       0.145766      1.572650      0.160233
  H      -0.644953      0.986590      0.064057
  H       0.116695      2.165630     -0.604366
9
Coordinates from ORCA-job 03_H2O_3 E -229.428077071990
  O      -1.449326     -0.654312     -0.124797
  H      -0.553718     -1.065062     -0.054865
  H      -1.960343     -1.013430      0.614305
  O       1.296710     -0.913271     -0.144902
  H       1.886904     -1.187091      0.571395
  H       1.172159      0.060566     -0.024942
  O       0.145266      1.572706      0.160567
  H      -0.644799      0.985900      0.064142
  H       0.117379      2.165189     -0.604451
