12
Coordinates from ORCA-job 04_H2O_4 E -305.915062081620
  O       1.372659     -1.372658      0.015734
  H       0.406261     -1.511316     -0.008945
  H       1.683553     -1.872433      0.772059
  O      -1.372658     -1.372658     -0.015734
  H      -1.511316     -0.406261      0.008945
  H      -1.872433     -1.683553     -0.772059
  O      -1.372658      1.372659      0.015734
  H      -0.406261      1.511317     -0.008945
  H      -1.683553      1.872433      0.772059
  O       1.372659      1.372659     -0.015734
  H       1.511317      0.406261      0.008945
  H       1.872433      1.683553     -0.772059
12
Coordinates from ORCA-job 04_H2O_4 E -305.916153559566
  O       1.375775     -1.372092      0.014722
  H       0.396475     -1.511442     -0.009458
  H       1.692052     -1.876072      0.777135
  O      -1.372092     -1.375775     -0.014722
  H      -1.511442     -0.396475      0.009458
  H      -1.876071     -1.692052     -0.777135
  O      -1.375775      1.372094      0.014722
  H      -0.396474      1.511443     -0.009458
  H      -1.692052      1.876072      0.777135
  O       1.372094      1.375775     -0.014722
  H       1.511443      0.396475      0.009458
  H       1.876072      1.692052     -0.777135
12
Coordinates from ORCA-job 04_H2O_4 E -305.916448156448
  O       1.366391     -1.357213      0.012744
  H       0.382502     -1.496657     -0.010176
  H       1.683578     -1.862149      0.776024
  O      -1.357213     -1.366391     -0.012744
  H      -1.496657     -0.382502      0.010176
  H      -1.862148     -1.683578     -0.776024
  O      -1.366390      1.357214      0.012743
  H      -0.382502      1.496658     -0.010176
  H      -1.683578      1.862149      0.776025
  O       1.357214      1.366391     -0.012743
  H       1.496658      0.382503      0.010176
  H       1.862149      1.683578     -0.776025
12
Coordinates from ORCA-job 04_H2O_4 E -305.916577223802
  O       1.353611     -1.338402      0.008882
  H       0.365282     -1.477447     -0.011509
  H       1.671942     -1.843297      0.770748
  O      -1.338402     -1.353610     -0.008882
  H      -1.477447     -0.365281      0.011509
  H      -1.843297     -1.671941     -0.770748
  O      -1.353610      1.338403      0.008882
  H      -0.365281      1.477447     -0.011509
  H      -1.671941      1.843297      0.770748
  O       1.338403      1.353611     -0.008882
  H       1.477447      0.365282      0.011509
  H       1.843297      1.671942     -0.770748
12
Coordinates from ORCA-job 04_H2O_4 E -305.916586088323
  O       1.353309     -1.338525      0.006935
  H       0.364489     -1.477098     -0.012212
  H       1.672774     -1.843250      0.767665
  O      -1.338525     -1.353308     -0.006935
  H      -1.477098     -0.364489      0.012212
  H      -1.843250     -1.672773     -0.767664
  O      -1.353308      1.338526      0.006934
  H      -0.364489      1.477099     -0.012212
  H      -1.672774      1.843250      0.767665
  O       1.338526      1.353309     -0.006934
  H       1.477099      0.364489      0.012212
  H       1.843250      1.672774     -0.767665
12
Coordinates from ORCA-job 04_H2O_4 E -305.916611770573
  O       1.351296     -1.339769     -0.007013
  H       0.360856     -1.475130     -0.017208
  H       1.678903     -1.844607      0.747588
  O      -1.339769     -1.351295      0.007013
  H      -1.475130     -0.360855      0.017208
  H      -1.844607     -1.678903     -0.747587
  O      -1.351296      1.339770     -0.007013
  H      -0.360855      1.475130     -0.017208
  H      -1.678903      1.844607      0.747587
  O       1.339770      1.351296      0.007013
  H       1.475131      0.360855      0.017208
  H       1.844607      1.678904     -0.747588
12
Coordinates from ORCA-job 04_H2O_4 E -305.916622819631
  O       1.348613     -1.341721     -0.029455
  H       0.356885     -1.472608     -0.025172
  H       1.688146     -1.848102      0.717270
  O      -1.341721     -1.348612      0.029455
  H      -1.472608     -0.356884      0.025172
  H      -1.848103     -1.688145     -0.717270
  O      -1.348612      1.341721     -0.029455
  H      -0.356884      1.472609     -0.025172
  H      -1.688146      1.848103      0.717270
  O       1.341721      1.348612      0.029455
  H       1.472609      0.356884      0.025172
  H       1.848103      1.688146     -0.717270
12
Coordinates from ORCA-job 04_H2O_4 E -305.916629228640
  O       1.345089     -1.344414     -0.065941
  H       0.352787     -1.469377     -0.038021
  H       1.701343     -1.854706      0.670258
  O      -1.344414     -1.345088      0.065941
  H      -1.469377     -0.352786      0.038021
  H      -1.854706     -1.701342     -0.670258
  O      -1.345088      1.344414     -0.065941
  H      -0.352786      1.469377     -0.038021
  H      -1.701343      1.854707      0.670258
  O       1.344414      1.345088      0.065941
  H       1.469378      0.352786      0.038021
  H       1.854706      1.701343     -0.670258
12
Coordinates from ORCA-job 04_H2O_4 E -305.916629687056
  O       1.342358     -1.346102     -0.103455
  H       0.351047     -1.466631     -0.051227
  H       1.711907     -1.861796      0.624544
  O      -1.346102     -1.342356      0.103455
  H      -1.466631     -0.351046      0.051227
  H      -1.861796     -1.711906     -0.624544
  O      -1.342357      1.346103     -0.103455
  H      -0.351047      1.466631     -0.051227
  H      -1.711907      1.861797      0.624544
  O       1.346103      1.342357      0.103455
  H       1.466632      0.351046      0.051227
  H       1.861796      1.711907     -0.624544
12
Coordinates from ORCA-job 04_H2O_4 E -305.916556462084
  O       1.339888     -1.346077     -0.141749
  H       0.350516     -1.463702     -0.064797
  H       1.719288     -1.868046      0.579390
  O      -1.346077     -1.339887      0.141749
  H      -1.463701     -0.350515      0.064797
  H      -1.868046     -1.719287     -0.579390
  O      -1.339888      1.346078     -0.141749
  H      -0.350515      1.463701     -0.064797
  H      -1.719288      1.868048      0.579390
  O       1.346077      1.339887      0.141749
  H       1.463702      0.350515      0.064797
  H       1.868046      1.719288     -0.579390
12
Coordinates from ORCA-job 04_H2O_4 E -305.916519951606
  O       1.339490     -1.345632     -0.151757
  H       0.350822     -1.463112     -0.068433
  H       1.720236     -1.869492      0.567642
  O      -1.345632     -1.339489      0.151756
  H      -1.463111     -0.350821      0.068433
  H      -1.869492     -1.720235     -0.567642
  O      -1.339490      1.345633     -0.151756
  H      -0.350821      1.463111     -0.068432
  H      -1.720235      1.869495      0.567641
  O       1.345632      1.339489      0.151757
  H       1.463112      0.350821      0.068433
  H       1.869492      1.720236     -0.567642
12
Coordinates from ORCA-job 04_H2O_4 E -305.916517571211
  O       1.339755     -1.345405     -0.152383
  H       0.351230     -1.463391     -0.068754
  H       1.719841     -1.869738      0.566860
  O      -1.345405     -1.339754      0.152383
  H      -1.463390     -0.351229      0.068753
  H      -1.869737     -1.719840     -0.566860
  O      -1.339754      1.345406     -0.152383
  H      -0.351229      1.463390     -0.068753
  H      -1.719841      1.869740      0.566859
  O       1.345405      1.339754      0.152383
  H       1.463391      0.351229      0.068754
  H       1.869737      1.719841     -0.566860
