18
Coordinates from ORCA-job 08_H2O_6_cage E -458.879131671364
  O       0.862065     -1.728538     -0.448765
  H       1.679686     -1.216793     -0.290371
  H       1.141594     -2.607406     -0.709910
  O      -0.751083      0.359939     -1.648316
  H      -0.283702     -0.473988     -1.502279
  H      -1.624922      0.215720     -1.247934
  O       0.590537      1.756310      0.198185
  H       0.069166      1.374794     -0.548651
  H       0.493944      2.707937      0.134574
  O      -0.675492     -0.446436      1.665684
  H      -0.188802     -1.063799      1.102054
  H      -0.260662      0.405216      1.474464
  O       2.803582      0.112403      0.084677
  H       2.165098      0.844551      0.158067
  H       3.282044      0.106258      0.915526
  O      -2.901034      0.010949      0.089937
  H      -2.258917     -0.224605      0.785219
  H      -3.643112     -0.584893      0.198028
18
Coordinates from ORCA-job 08_H2O_6_cage E -458.880618473210
  O       0.864317     -1.733095     -0.450662
  H       1.690985     -1.211970     -0.290590
  H       1.146072     -2.619750     -0.714314
  O      -0.752608      0.360858     -1.653250
  H      -0.280276     -0.481370     -1.504043
  H      -1.635854      0.214918     -1.247309
  O       0.596006      1.764994      0.200499
  H       0.067111      1.377312     -0.556397
  H       0.501306      2.725291      0.137920
  O      -0.682627     -0.448468      1.674499
  H      -0.190200     -1.070922      1.104522
  H      -0.262189      0.410932      1.481232
  O       2.811699      0.109862      0.081086
  H       2.165739      0.851908      0.156782
  H       3.296596      0.100284      0.918083
  O      -2.911669      0.011889      0.086756
  H      -2.262462     -0.226766      0.792605
  H      -3.661956     -0.588290      0.192769
18
Coordinates from ORCA-job 08_H2O_6_cage E -458.880943494891
  O       0.858259     -1.721938     -0.447922
  H       1.686623     -1.196122     -0.287995
  H       1.142345     -2.609027     -0.711903
  O      -0.745180      0.361571     -1.643082
  H      -0.272935     -0.482939     -1.492086
  H      -1.630271      0.214451     -1.234669
  O       0.597421      1.756305      0.199692
  H       0.065688      1.366671     -0.560503
  H       0.504833      2.717938      0.136652
  O      -0.686005     -0.448621      1.669234
  H      -0.191286     -1.070149      1.096809
  H      -0.262436      0.411340      1.475935
  O       2.792711      0.105413      0.076042
  H       2.145591      0.850669      0.153182
  H       3.278177      0.094689      0.914125
  O      -2.893861      0.013119      0.084321
  H      -2.244471     -0.227616      0.794129
  H      -3.645215     -0.588137      0.188228
18
Coordinates from ORCA-job 08_H2O_6_cage E -458.881180161047
  O       0.846793     -1.701863     -0.439788
  H       1.676902     -1.168453     -0.282292
  H       1.133304     -2.587897     -0.702830
  O      -0.731302      0.365559     -1.623236
  H      -0.261054     -0.481693     -1.469807
  H      -1.617385      0.215745     -1.211220
  O       0.598748      1.738632      0.197295
  H       0.062398      1.346346     -0.567646
  H       0.510262      2.700152      0.134125
  O      -0.691849     -0.450636      1.659690
  H      -0.193698     -1.069057      1.083844
  H      -0.264237      0.408833      1.467919
  O       2.757698      0.098966      0.065209
  H       2.108984      0.847694      0.144822
  H       3.243758      0.086886      0.902462
  O      -2.858535      0.015046      0.079690
  H      -2.210918     -0.229940      0.795227
  H      -3.609879     -0.586701      0.176726
18
Coordinates from ORCA-job 08_H2O_6_cage E -458.881200025026
  O       0.845225     -1.700867     -0.435678
  H       1.675718     -1.165827     -0.280636
  H       1.130829     -2.586872     -0.697493
  O      -0.729778      0.369032     -1.620522
  H      -0.260660     -0.478880     -1.467101
  H      -1.615722      0.218083     -1.207622
  O       0.599068      1.736107      0.196649
  H       0.061185      1.343485     -0.569413
  H       0.511753      2.697193      0.134533
  O      -0.693487     -0.453465      1.660271
  H      -0.194667     -1.071127      1.083763
  H      -0.265853      0.406209      1.469968
  O       2.754856      0.100084      0.061243
  H       2.104769      0.848209      0.141476
  H       3.241940      0.088207      0.897190
  O      -2.853490      0.015406      0.078138
  H      -2.206959     -0.231256      0.794543
  H      -3.604737     -0.586102      0.170881
18
Coordinates from ORCA-job 08_H2O_6_cage E -458.881235210643
  O       0.843146     -1.702183     -0.422900
  H       1.673826     -1.163710     -0.276500
  H       1.125853     -2.589234     -0.680556
  O      -0.728409      0.379525     -1.616274
  H      -0.262293     -0.469840     -1.463636
  H      -1.613881      0.225808     -1.201177
  O       0.600051      1.731317      0.195760
  H       0.058492      1.338897     -0.572256
  H       0.515685      2.691933      0.137420
  O      -0.697615     -0.462892      1.665271
  H      -0.197350     -1.078521      1.087273
  H      -0.270858      0.397755      1.479903
  O       2.754116      0.105755      0.048727
  H       2.099506      0.850436      0.131198
  H       3.245386      0.095016      0.881076
  O      -2.845793      0.016840      0.073155
  H      -2.202689     -0.234615      0.790953
  H      -3.597185     -0.584667      0.152752
18
Coordinates from ORCA-job 08_H2O_6_cage E -458.881257499106
  O       0.842885     -1.704609     -0.410759
  H       1.672958     -1.163707     -0.273365
  H       1.123931     -2.593236     -0.664033
  O      -0.728840      0.387943     -1.614620
  H      -0.264692     -0.462267     -1.463045
  H      -1.614055      0.232756     -1.197666
  O       0.601267      1.727713      0.196623
  H       0.057301      1.336500     -0.572114
  H       0.519179      2.688553      0.141814
  O      -0.701953     -0.471899      1.672123
  H      -0.200448     -1.085480      1.092879
  H      -0.276069      0.389773      1.491793
  O       2.757346      0.111862      0.035248
  H       2.098181      0.852313      0.120962
  H       3.253131      0.102480      0.864706
  O      -2.842873      0.019108      0.067732
  H      -2.203079     -0.236618      0.786300
  H      -3.594182     -0.583568      0.135611
18
Coordinates from ORCA-job 08_H2O_6_cage E -458.881284999801
  O       0.844000     -1.707608     -0.393322
  H       1.672739     -1.163649     -0.269832
  H       1.124684     -2.598646     -0.639479
  O      -0.730451      0.397200     -1.614761
  H      -0.267761     -0.453524     -1.464810
  H      -1.615547      0.241776     -1.195286
  O       0.603478      1.722517      0.200792
  H       0.057584      1.334106     -0.568108
  H       0.523876      2.684068      0.150392
  O      -0.710590     -0.484680      1.684475
  H      -0.207019     -1.094805      1.103413
  H      -0.285335      0.378343      1.511957
  O       2.765300      0.120780      0.012511
  H       2.099088      0.854149      0.105150
  H       3.267716      0.113505      0.838319
  O      -2.842269      0.024012      0.058953
  H      -2.207278     -0.237635      0.778479
  H      -3.592227     -0.582290      0.111344
18
Coordinates from ORCA-job 08_H2O_6_cage E -458.881305185783
  O       0.846073     -1.708431     -0.373422
  H       1.673379     -1.161031     -0.266889
  H       1.128952     -2.601969     -0.610294
  O      -0.731839      0.403919     -1.617484
  H      -0.269168     -0.446549     -1.469179
  H      -1.616950      0.250668     -1.195307
  O       0.606333      1.715302      0.209646
  H       0.060326      1.331119     -0.559142
  H       0.528298      2.677732      0.162795
  O      -0.725039     -0.498743      1.701011
  H      -0.218323     -1.103984      1.117674
  H      -0.299210      0.365410      1.538138
  O       2.776564      0.130370     -0.018447
  H       2.101812      0.854666      0.085513
  H       3.286269      0.125261      0.803673
  O      -2.843677      0.031801      0.048168
  H      -2.214070     -0.236449      0.769005
  H      -3.589741     -0.581472      0.084732
18
Coordinates from ORCA-job 08_H2O_6_cage E -458.881303422043
  O       0.847710     -1.704650     -0.354709
  H       1.674401     -1.153884     -0.265289
  H       1.135080     -2.600069     -0.581459
  O      -0.730901      0.405725     -1.622643
  H      -0.266597     -0.443592     -1.475246
  H      -1.616068      0.257236     -1.198297
  O       0.608861      1.706210      0.223181
  H       0.065296      1.326780     -0.546158
  H       0.530420      2.669237      0.177470
  O      -0.744690     -0.510734      1.718192
  H      -0.233864     -1.110274      1.132457
  H      -0.316557      0.353870      1.565143
  O       2.788200      0.138196     -0.053468
  H       2.105333      0.853096      0.065380
  H       3.304345      0.134059      0.765462
  O      -2.845619      0.041329      0.037987
  H      -2.220588     -0.232902      0.760432
  H      -3.584772     -0.582014      0.061755
18
Coordinates from ORCA-job 08_H2O_6_cage E -458.881285253789
  O       0.846942     -1.696869     -0.343282
  H       1.674475     -1.144102     -0.265316
  H       1.138158     -2.593151     -0.562598
  O      -0.726584      0.402391     -1.627828
  H      -0.260082     -0.445431     -1.479876
  H      -1.611724      0.259138     -1.202853
  O       0.609383      1.698126      0.237031
  H       0.069881      1.321804     -0.534305
  H       0.528517      2.661102      0.189767
  O      -0.762272     -0.515837      1.728545
  H      -0.247865     -1.111088      1.141249
  H      -0.331005      0.348431      1.582050
  O       2.795209      0.141611     -0.080075
  H       2.107962      0.850335      0.051963
  H       3.315459      0.135902      0.736622
  O      -2.845975      0.048463      0.032652
  H      -2.222753     -0.228942      0.756314
  H      -3.577737     -0.584264      0.050129
18
Coordinates from ORCA-job 08_H2O_6_cage E -458.881278877738
  O       0.843507     -1.688361     -0.338932
  H       1.672844     -1.135486     -0.266051
  H       1.135529     -2.585156     -0.554438
  O      -0.720225      0.396893     -1.631235
  H      -0.252182     -0.449782     -1.481572
  H      -1.605335      0.257383     -1.207059
  O       0.607476      1.692760      0.248145
  H       0.072213      1.317394     -0.526278
  H       0.523392      2.655253      0.198474
  O      -0.772852     -0.514341      1.730461
  H      -0.256398     -1.107780      1.142812
  H      -0.339037      0.349345      1.586634
  O       2.797127      0.141693     -0.094255
  H       2.109426      0.848203      0.046562
  H       3.319989      0.132183      0.720624
  O      -2.844448      0.051352      0.032176
  H      -2.220358     -0.226319      0.756185
  H      -3.570680     -0.587613      0.047936
18
Coordinates from ORCA-job 08_H2O_6_cage E -458.881286619536
  O       0.837932     -1.680807     -0.337084
  H       1.669537     -1.129353     -0.266467
  H       1.127342     -2.578592     -0.550594
  O      -0.712734      0.391848     -1.633219
  H      -0.244169     -0.454305     -1.481291
  H      -1.598030      0.254396     -1.210565
  O       0.603613      1.689036      0.257510
  H       0.072526      1.313608     -0.520694
  H       0.516341      2.650947      0.206213
  O      -0.777536     -0.509355      1.727263
  H      -0.260251     -1.102901      1.140163
  H      -0.342245      0.354027      1.583986
  O       2.796394      0.140991     -0.101651
  H       2.110496      0.847636      0.045344
  H       3.322044      0.126277      0.710977
  O      -2.841885      0.051193      0.034028
  H      -2.215331     -0.225166      0.757593
  H      -3.564055     -0.591861      0.048677
18
Coordinates from ORCA-job 08_H2O_6_cage E -458.881299820649
  O       0.831581     -1.675879     -0.334212
  H       1.665344     -1.126858     -0.265835
  H       1.115575     -2.575493     -0.546035
  O      -0.705591      0.389594     -1.634386
  H      -0.237642     -0.456809     -1.480465
  H      -1.591389      0.252504     -1.213220
  O       0.598741      1.686046      0.265430
  H       0.071338      1.310706     -0.516587
  H       0.509185      2.647596      0.214527
  O      -0.777575     -0.503779      1.722401
  H      -0.260255     -1.098717      1.136422
  H      -0.342207      0.359879      1.578954
  O       2.794988      0.141238     -0.106779
  H       2.111824      0.849002      0.045088
  H       3.324367      0.121233      0.702944
  O      -2.839607      0.049401      0.035907
  H      -2.210124     -0.225306      0.758438
  H      -3.558562     -0.596739      0.047599
18
Coordinates from ORCA-job 08_H2O_6_cage E -458.881310733075
  O       0.826489     -1.674576     -0.329093
  H       1.661783     -1.128210     -0.264113
  H       1.104218     -2.576555     -0.538808
  O      -0.700614      0.391152     -1.635275
  H      -0.234133     -0.456115     -1.480479
  H      -1.587052      0.253109     -1.214903
  O       0.594331      1.683406      0.271404
  H       0.069483      1.309001     -0.513602
  H       0.504100      2.645024      0.223131
  O      -0.774912     -0.499794      1.718872
  H      -0.257862     -1.096582      1.134224
  H      -0.340664      0.364628      1.575350
  O       2.794103      0.142866     -0.111979
  H       2.113599      0.851814      0.043870
  H       3.327796      0.118965      0.694694
  O      -2.838774      0.047417      0.036322
  H      -2.207043     -0.226223      0.757608
  H      -3.554859     -0.601708      0.042967
18
Coordinates from ORCA-job 08_H2O_6_cage E -458.881314613119
  O       0.824349     -1.676064     -0.323591
  H       1.660354     -1.131630     -0.262263
  H       1.097866     -2.579976     -0.531109
  O      -0.698936      0.394922     -1.636028
  H      -0.233942     -0.453259     -1.481770
  H      -1.585735      0.255621     -1.215513
  O       0.591831      1.681234      0.274818
  H       0.068030      1.308411     -0.511632
  H       0.502443      2.643242      0.229941
  O      -0.772396     -0.498066      1.718181
  H      -0.255446     -1.096210      1.134663
  H      -0.339482      0.367061      1.574792
  O       2.793883      0.144813     -0.117016
  H       2.115265      0.854591      0.041687
  H       3.331071      0.119294      0.687474
  O      -2.839437      0.046454      0.035153
  H      -2.206891     -0.227003      0.755571
  H      -3.552836     -0.605818      0.036829
18
Coordinates from ORCA-job 08_H2O_6_cage E -458.881314499554
  O       0.824344     -1.678355     -0.319238
  H       1.660764     -1.135195     -0.260963
  H       1.095936     -2.583496     -0.524771
  O      -0.699312      0.398728     -1.636668
  H      -0.235403     -0.450154     -1.483822
  H      -1.586070      0.258529     -1.215433
  O       0.590791      1.679266      0.276961
  H       0.067183      1.308171     -0.509966
  H       0.502892      2.641699      0.234980
  O      -0.771392     -0.497049      1.719228
  H      -0.254196     -1.095965      1.136681
  H      -0.339304      0.368421      1.575830
  O       2.793743      0.146194     -0.121547
  H       2.116644      0.856775      0.039444
  H       3.333436      0.120262      0.681529
  O      -2.840702      0.046428      0.033355
  H      -2.208245     -0.227221      0.753407
  H      -3.551119     -0.609422      0.031182
18
Coordinates from ORCA-job 08_H2O_6_cage E -458.881311433381
  O       0.825545     -1.680974     -0.315335
  H       1.662646     -1.139077     -0.260060
  H       1.096253     -2.587077     -0.518621
  O      -0.700786      0.402675     -1.637209
  H      -0.237808     -0.446895     -1.486720
  H      -1.587111      0.261827     -1.214702
  O       0.590280      1.676625      0.279570
  H       0.066521      1.307616     -0.507609
  H       0.504375      2.639470      0.240238
  O      -0.771962     -0.495110      1.721247
  H      -0.254037     -1.094591      1.139964
  H      -0.340131      0.370363      1.577357
  O       2.793183      0.147098     -0.126797
  H       2.118216      0.859076      0.037099
  H       3.335529      0.120766      0.674752
  O      -2.842269      0.046916      0.031052
  H      -2.210294     -0.226932      0.751140
  H      -3.548160     -0.614157      0.024823
18
Coordinates from ORCA-job 08_H2O_6_cage E -458.881306763751
  O       0.827388     -1.682837     -0.313294
  H       1.665504     -1.142043     -0.259973
  H       1.098029     -2.589448     -0.514702
  O      -0.702717      0.405402     -1.637161
  H      -0.240261     -0.444706     -1.489440
  H      -1.588304      0.264309     -1.213121
  O       0.590229      1.673733      0.282577
  H       0.066071      1.306500     -0.504816
  H       0.506086      2.636799      0.244506
  O      -0.774398     -0.491806      1.723348
  H      -0.255306     -1.091558      1.143485
  H      -0.341939      0.373231      1.578270
  O       2.792178      0.147171     -0.131390
  H       2.119839      0.861101      0.035620
  H       3.337098      0.119897      0.668490
  O      -2.843447      0.047500      0.029109
  H      -2.212038     -0.226255      0.749730
  H      -3.544022     -0.619369      0.018950
18
Coordinates from ORCA-job 08_H2O_6_cage E -458.881303678895
  O       0.828942     -1.683268     -0.313689
  H       1.668065     -1.143186     -0.260725
  H       1.099742     -2.589946     -0.514195
  O      -0.704291      0.406064     -1.636192
  H      -0.241849     -0.444327     -1.490733
  H      -1.589172      0.265062     -1.210871
  O       0.590547      1.671467      0.285269
  H       0.065867      1.305036     -0.502324
  H       0.507229      2.634496      0.246483
  O      -0.777908     -0.487952      1.724720
  H      -0.257573     -1.087652      1.146055
  H      -0.344160      0.376373      1.578093
  O       2.791369      0.146671     -0.133981
  H       2.121360      0.862399      0.035507
  H       3.338410      0.117906      0.664293
  O      -2.843791      0.047699      0.028227
  H      -2.212798     -0.225618      0.749703
  H      -3.539999     -0.623603      0.014547
18
Coordinates from ORCA-job 08_H2O_6_cage E -458.881305565193
  O       0.829651     -1.682657     -0.315736
  H       1.669325     -1.142860     -0.261866
  H       1.100356     -2.589184     -0.516409
  O      -0.705172      0.405157     -1.634455
  H      -0.242436     -0.445276     -1.490214
  H      -1.589694      0.264302     -1.208473
  O       0.591108      1.670422      0.286830
  H       0.065867      1.303768     -0.500779
  H       0.507717      2.633289      0.246044
  O      -0.780956     -0.484802      1.725179
  H      -0.259727     -1.084309      1.147231
  H      -0.345919      0.378855      1.577189
  O       2.791391      0.146145     -0.134281
  H       2.122711      0.862860      0.036420
  H       3.339820      0.115998      0.662786
  O      -2.843626      0.047335      0.028343
  H      -2.212864     -0.225385      0.750626
  H      -3.537563     -0.626038      0.011755
18
Coordinates from ORCA-job 08_H2O_6_cage E -458.881308137238
  O       0.829624     -1.681619     -0.317906
  H       1.669460     -1.141944     -0.263033
  H       1.099760     -2.588079     -0.519062
  O      -0.705636      0.403888     -1.632060
  H      -0.242559     -0.446532     -1.488518
  H      -1.590124      0.263047     -1.205802
  O       0.591846      1.669820      0.288061
  H       0.065995      1.302521     -0.499415
  H       0.508115      2.632526      0.244868
  O      -0.783702     -0.482175      1.725500
  H      -0.261751     -1.081457      1.148085
  H      -0.347556      0.380936      1.576476
  O       2.792441      0.145989     -0.134306
  H       2.124394      0.862983      0.037289
  H       3.342349      0.114694      0.661509
  O      -2.843620      0.046618      0.028567
  H      -2.213096     -0.225522      0.751594
  H      -3.535948     -0.628075      0.008342
18
Coordinates from ORCA-job 08_H2O_6_cage E -458.881309922984
  O       0.828981     -1.680544     -0.319520
  H       1.668601     -1.140912     -0.264035
  H       1.098261     -2.587081     -0.521137
  O      -0.705933      0.402958     -1.629042
  H      -0.242628     -0.447498     -1.485991
  H      -1.590661      0.261886     -1.202862
  O       0.592829      1.669299      0.289223
  H       0.066264      1.301267     -0.497899
  H       0.508987      2.631923      0.243766
  O      -0.786081     -0.479882      1.726056
  H      -0.263493     -1.079039      1.149174
  H      -0.349121      0.382842      1.576344
  O       2.794462      0.146197     -0.134912
  H       2.126596      0.862920      0.037645
  H       3.346261      0.114263      0.659456
  O      -2.844373      0.045676      0.028424
  H      -2.214184     -0.225984      0.752097
  H      -3.534778     -0.630672      0.003402
18
Coordinates from ORCA-job 08_H2O_6_cage E -458.881309371151
  O       0.827629     -1.679430     -0.320385
  H       1.666663     -1.139722     -0.264880
  H       1.096047     -2.586153     -0.522266
  O      -0.706189      0.402716     -1.625007
  H      -0.242874     -0.447922     -1.482503
  H      -1.591435      0.261072     -1.199354
  O       0.594345      1.668513      0.290697
  H       0.066831      1.299780     -0.495756
  H       0.511051      2.631167      0.243172
  O      -0.788470     -0.477363      1.727125
  H      -0.265155     -1.076583      1.151042
  H      -0.350929      0.385093      1.576997
  O       2.797549      0.146592     -0.136808
  H       2.129674      0.862654      0.037229
  H       3.352152      0.114724      0.655594
  O      -2.846578      0.044464      0.027633
  H      -2.216889     -0.226804      0.751884
  H      -3.533433     -0.635179     -0.004223
18
Coordinates from ORCA-job 08_H2O_6_cage E -458.881305130145
  O       0.825565     -1.678369     -0.320227
  H       1.663744     -1.138309     -0.265388
  H       1.093817     -2.585229     -0.522016
  O      -0.706364      0.403531     -1.620274
  H      -0.243396     -0.447523     -1.478449
  H      -1.592360      0.260958     -1.195752
  O       0.596550      1.667378      0.292509
  H       0.067878      1.298152     -0.492982
  H       0.514868      2.630200      0.243518
  O      -0.790736     -0.474509      1.728628
  H      -0.266572     -1.074107      1.153784
  H      -0.352924      0.387818      1.578412
  O       2.801066      0.146740     -0.140202
  H       2.133264      0.862083      0.035937
  H       3.359367      0.115946      0.649737
  O      -2.850694      0.043100      0.026195
  H      -2.221586     -0.227923      0.750814
  H      -3.531498     -0.642319     -0.014055
18
Coordinates from ORCA-job 08_H2O_6_cage E -458.881298753214
  O       0.823208     -1.677473     -0.319295
  H       1.660516     -1.136570     -0.265427
  H       1.092785     -2.584129     -0.520705
  O      -0.706381      0.405245     -1.615931
  H      -0.244113     -0.446418     -1.474797
  H      -1.593164      0.261594     -1.193102
  O       0.599329      1.666253      0.294211
  H       0.069463      1.296798     -0.490219
  H       0.520246      2.629317      0.244609
  O      -0.792537     -0.471719      1.730069
  H      -0.267497     -1.072010      1.156842
  H      -0.354792      0.390616      1.580114
  O       2.803663      0.146074     -0.144171
  H       2.136221      0.861123      0.034228
  H       3.365807      0.117338      0.643264
  O      -2.856216      0.041869      0.024707
  H      -2.227524     -0.229118      0.749339
  H      -3.529026     -0.651172     -0.023545
18
Coordinates from ORCA-job 08_H2O_6_cage E -458.881301733335
  O       0.821752     -1.677144     -0.319173
  H       1.658462     -1.135037     -0.265112
  H       1.094079     -2.583020     -0.520695
  O      -0.706337      0.406488     -1.614025
  H      -0.244725     -0.445652     -1.473057
  H      -1.593586      0.262151     -1.192910
  O       0.601723      1.666481      0.294218
  H       0.071058      1.296801     -0.489351
  H       0.524870      2.629671      0.244688
  O      -0.792438     -0.470278      1.730058
  H      -0.267034     -1.071429      1.158110
  H      -0.355111      0.392206      1.580439
  O       2.803572      0.144364     -0.145033
  H       2.136637      0.859945      0.033892
  H       3.367466      0.117907      0.641306
  O      -2.860622      0.041172      0.024660
  H      -2.231774     -0.229883      0.748806
  H      -3.528002     -0.657122     -0.026632
18
Coordinates from ORCA-job 08_H2O_6_cage E -458.881301873336
  O       0.820777     -1.676804     -0.318697
  H       1.657230     -1.133261     -0.264487
  H       1.096380     -2.581752     -0.520062
  O      -0.706169      0.407847     -1.613002
  H      -0.245291     -0.444808     -1.472395
  H      -1.593683      0.262973     -1.193314
  O       0.604142      1.666723      0.294485
  H       0.072776      1.296947     -0.488582
  H       0.529373      2.629980      0.244895
  O      -0.792879     -0.469106      1.729626
  H      -0.266842     -1.071020      1.159269
  H      -0.355932      0.393526      1.580554
  O       2.801704      0.142172     -0.146013
  H       2.135727      0.858957      0.033651
  H       3.367555      0.117554      0.638972
  O      -2.864074      0.040822      0.025301
  H      -2.234894     -0.230493      0.748894
  H      -3.525908     -0.662636     -0.028907
18
Coordinates from ORCA-job 08_H2O_6_cage E -458.881304784444
  O       0.820792     -1.676883     -0.318634
  H       1.657163     -1.132364     -0.263926
  H       1.098465     -2.581159     -0.520034
  O      -0.706269      0.408520     -1.612891
  H      -0.245832     -0.444435     -1.472656
  H      -1.593806      0.263409     -1.193810
  O       0.605710      1.667451      0.294404
  H       0.073874      1.297511     -0.488423
  H       0.531808      2.630665      0.244241
  O      -0.793314     -0.468809      1.728821
  H      -0.266671     -1.071193      1.159645
  H      -0.356672      0.393947      1.580206
  O       2.799418      0.140626     -0.145760
  H       2.134267      0.858543      0.034036
  H       3.366598      0.116778      0.638212
  O      -2.865295      0.040801      0.026549
  H      -2.235778     -0.230815      0.749735
  H      -3.524467     -0.664974     -0.029527
18
Coordinates from ORCA-job 08_H2O_6_cage E -458.881310112920
  O       0.821443     -1.677395     -0.318386
  H       1.657740     -1.132019     -0.263097
  H       1.100529     -2.581158     -0.519856
  O      -0.706651      0.408997     -1.613185
  H      -0.246587     -0.444204     -1.473491
  H      -1.594125      0.263796     -1.194290
  O       0.607164      1.668814      0.294256
  H       0.074879      1.298625     -0.488342
  H       0.533435      2.631916      0.242868
  O      -0.794066     -0.469385      1.727563
  H      -0.266516     -1.072160      1.159739
  H      -0.357913      0.393627      1.579765
  O       2.796637      0.139404     -0.145088
  H       2.132273      0.858424      0.034657
  H       3.365458      0.115969      0.637569
  O      -2.865356      0.041176      0.028450
  H      -2.235445     -0.231035      0.751185
  H      -3.522908     -0.665774     -0.030127
