18
Coordinates from ORCA-job 09_H2O_6_prism E -458.878815762879
  O      -1.511782     -0.232325      1.434522
  H      -0.613900     -0.631798      1.542476
  H      -2.015087     -0.484249      2.210210
  O      -1.744551     -0.350365     -1.322141
  H      -1.890020     -0.475498     -0.368433
  H      -2.508917     -0.726304     -1.761973
  O      -0.568902      2.010658     -0.079448
  H      -0.957800      1.521230      0.658817
  H      -0.991476      1.598457     -0.842120
  O       0.972064     -1.194842      1.413465
  H       0.986177     -1.536208      0.500658
  H       1.544338     -0.420911      1.334663
  O       0.983916     -1.359847     -1.372465
  H       0.077993     -1.073694     -1.552782
  H       1.480193     -0.535792     -1.283351
  O       2.003223      1.063257     -0.092296
  H       1.144078      1.530799     -0.098089
  H       2.672690      1.741694     -0.193152
18
Coordinates from ORCA-job 09_H2O_6_prism E -458.880208572404
  O      -1.518613     -0.233538      1.441988
  H      -0.608475     -0.638624      1.551289
  H      -2.029052     -0.486062      2.223309
  O      -1.750195     -0.352381     -1.330945
  H      -1.897560     -0.478538     -0.365694
  H      -2.520674     -0.730556     -1.777032
  O      -0.566983      2.021964     -0.080830
  H      -0.960617      1.527609      0.664928
  H      -0.993544      1.604639     -0.849675
  O       0.975713     -1.201052      1.421889
  H       0.989901     -1.546370      0.497589
  H       1.553088     -0.419544      1.340881
  O       0.987502     -1.368933     -1.377381
  H       0.072194     -1.078223     -1.559527
  H       1.488119     -0.536128     -1.286665
  O       2.011434      1.067542     -0.092299
  H       1.140839      1.542608     -0.098745
  H       2.689160      1.749850     -0.194519
18
Coordinates from ORCA-job 09_H2O_6_prism E -458.880453746238
  O      -1.511701     -0.232782      1.434860
  H      -0.598011     -0.640054      1.544969
  H      -2.024237     -0.485104      2.215994
  O      -1.740102     -0.349898     -1.327055
  H      -1.887914     -0.476220     -0.359676
  H      -2.511993     -0.727657     -1.773149
  O      -0.558619      2.015714     -0.081610
  H      -0.954006      1.520505      0.664939
  H      -0.986281      1.596357     -0.850364
  O       0.968226     -1.196687      1.417513
  H       0.983310     -1.542482      0.490361
  H       1.546014     -0.413751      1.334750
  O       0.982750     -1.366214     -1.368883
  H       0.066293     -1.073067     -1.551739
  H       1.482901     -0.531189     -1.277365
  O       1.999660      1.062166     -0.091688
  H       1.127102      1.540302     -0.098721
  H       2.678846      1.744322     -0.194574
18
Coordinates from ORCA-job 09_H2O_6_prism E -458.880671713194
  O      -1.496473     -0.230819      1.417514
  H      -0.576643     -0.641858      1.529107
  H      -2.012465     -0.482371      2.196098
  O      -1.719652     -0.343961     -1.316357
  H      -1.867148     -0.470378     -0.346355
  H      -2.492674     -0.720165     -1.761203
  O      -0.543891      2.001744     -0.082057
  H      -0.941283      1.505117      0.664428
  H      -0.973021      1.579383     -0.849568
  O       0.952463     -1.186439      1.406602
  H       0.969927     -1.532122      0.475715
  H       1.529650     -0.402154      1.320625
  O       0.974224     -1.360052     -1.350051
  H       0.057475     -1.062923     -1.534181
  H       1.472331     -0.522203     -1.257754
  O       1.974367      1.050268     -0.090781
  H       1.099373      1.533437     -0.098479
  H       2.655675      1.729757     -0.194744
18
Coordinates from ORCA-job 09_H2O_6_prism E -458.880692837249
  O      -1.494444     -0.230333      1.413399
  H      -0.573083     -0.642093      1.525378
  H      -2.011632     -0.481672      2.190632
  O      -1.718218     -0.342542     -1.313589
  H      -1.864534     -0.468836     -0.343033
  H      -2.491066     -0.718419     -1.757908
  O      -0.544237      2.000801     -0.081094
  H      -0.941090      1.503145      0.665111
  H      -0.973449      1.578300     -0.848582
  O       0.950390     -1.184962      1.404812
  H       0.968773     -1.530285      0.473287
  H       1.527189     -0.400382      1.318456
  O       0.975078     -1.360504     -1.347034
  H       0.058628     -1.063016     -1.531451
  H       1.472739     -0.522339     -1.255254
  O       1.971428      1.048696     -0.091045
  H       1.096133      1.532194     -0.098343
  H       2.653631      1.726508     -0.195180
18
Coordinates from ORCA-job 09_H2O_6_prism E -458.880732224661
  O      -1.490524     -0.229693      1.403877
  H      -0.566367     -0.642883      1.517040
  H      -2.011571     -0.480830      2.177624
  O      -1.718543     -0.340048     -1.307724
  H      -1.860359     -0.465617     -0.335693
  H      -2.491382     -0.715725     -1.750389
  O      -0.548649      2.002933     -0.077332
  H      -0.942883      1.501486      0.667862
  H      -0.977636      1.581049     -0.845370
  O       0.946661     -1.183282      1.402594
  H       0.967491     -1.527231      0.469828
  H       1.522331     -0.397929      1.316146
  O       0.979594     -1.364718     -1.342417
  H       0.063912     -1.066896     -1.527473
  H       1.476655     -0.526009     -1.252979
  O       1.967906      1.047564     -0.092303
  H       1.092698      1.530905     -0.097901
  H       2.652903      1.721185     -0.196829
18
Coordinates from ORCA-job 09_H2O_6_prism E -458.880754988796
  O      -1.487602     -0.229671      1.397271
  H      -0.562637     -0.643784      1.511589
  H      -2.012127     -0.481096      2.168457
  O      -1.720526     -0.339728     -1.304847
  H      -1.857854     -0.464079     -0.331551
  H      -2.494047     -0.716034     -1.745405
  O      -0.553317      2.008760     -0.073338
  H      -0.944700      1.503341      0.670711
  H      -0.981567      1.588209     -0.842446
  O       0.944619     -1.183923      1.402784
  H       0.966928     -1.526340      0.469264
  H       1.519298     -0.397802      1.317258
  O       0.983387     -1.370599     -1.341240
  H       0.068041     -1.072682     -1.526623
  H       1.480575     -0.531727     -1.254536
  O       1.967077      1.049033     -0.093367
  H       1.092653      1.532065     -0.097251
  H       2.654037      1.720322     -0.198169
18
Coordinates from ORCA-job 09_H2O_6_prism E -458.880777315923
  O      -1.483744     -0.229604      1.390003
  H      -0.559427     -0.644900      1.505880
  H      -2.012564     -0.482004      2.158312
  O      -1.723041     -0.341604     -1.303691
  H      -1.854358     -0.463357     -0.328778
  H      -2.498217     -0.719779     -1.740183
  O      -0.559140      2.020423     -0.067226
  H      -0.946448      1.509113      0.674898
  H      -0.985554      1.602376     -0.838478
  O       0.943388     -1.186928      1.404395
  H       0.966313     -1.526821      0.470017
  H       1.516656     -0.399539      1.321340
  O       0.986762     -1.380389     -1.341881
  H       0.071461     -1.082256     -1.527310
  H       1.484829     -0.541801     -1.259483
  O       1.966627      1.052641     -0.094197
  H       1.093730      1.535890     -0.095751
  H       2.654965      1.722800     -0.199305
18
Coordinates from ORCA-job 09_H2O_6_prism E -458.880794209895
  O      -1.479647     -0.228625      1.383902
  H      -0.557370     -0.645430      1.501163
  H      -2.011894     -0.482659      2.149875
  O      -1.723528     -0.345780     -1.305234
  H      -1.849473     -0.463689     -0.328844
  H      -2.500862     -0.726930     -1.736157
  O      -0.563893      2.035113     -0.060274
  H      -0.947122      1.517468      0.679496
  H      -0.987369      1.620040     -0.834426
  O       0.943972     -1.191777      1.406229
  H       0.965603     -1.528468      0.470888
  H       1.515620     -0.402831      1.326847
  O       0.987249     -1.391296     -1.343545
  H       0.071694     -1.092641     -1.528528
  H       1.486901     -0.553568     -1.265916
  O       1.965131      1.056518     -0.094076
  H       1.093957      1.541261     -0.093369
  H       2.653268      1.727555     -0.199469
18
Coordinates from ORCA-job 09_H2O_6_prism E -458.880807499631
  O      -1.474824     -0.225696      1.378324
  H      -0.555504     -0.644884      1.496641
  H      -2.009363     -0.482133      2.142408
  O      -1.720078     -0.352290     -1.309459
  H      -1.841727     -0.464726     -0.331726
  H      -2.499755     -0.737668     -1.733254
  O      -0.567587      2.052403     -0.052017
  H      -0.946685      1.527758      0.684902
  H      -0.986664      1.640550     -0.829925
  O       0.946568     -1.198330      1.407344
  H       0.964515     -1.530673      0.470574
  H       1.516196     -0.407486      1.332745
  O       0.983854     -1.402667     -1.344940
  H       0.067880     -1.103003     -1.528924
  H       1.485869     -0.566373     -1.272513
  O       1.960761      1.059361     -0.092963
  H       1.091440      1.547365     -0.089918
  H       2.647342      1.732756     -0.198738
18
Coordinates from ORCA-job 09_H2O_6_prism E -458.880814222461
  O      -1.469985     -0.220684      1.374087
  H      -0.553172     -0.643092      1.492751
  H      -2.005147     -0.479712      2.137004
  O      -1.712158     -0.359263     -1.315102
  H      -1.831873     -0.465776     -0.336464
  H      -2.493329     -0.749095     -1.732378
  O      -0.569934      2.067473     -0.043965
  H      -0.945588      1.536544      0.690308
  H      -0.984034      1.658014     -0.825514
  O       0.950321     -1.204802      1.406952
  H       0.963025     -1.532187      0.468282
  H       1.517875     -0.412198      1.336686
  O       0.977144     -1.410890     -1.344488
  H       0.060783     -1.109917     -1.527262
  H       1.481682     -0.576114     -1.276353
  O       1.953111      1.059423     -0.091621
  H       1.085421      1.551723     -0.086385
  H       2.638093      1.734814     -0.197979
18
Coordinates from ORCA-job 09_H2O_6_prism E -458.880818060292
  O      -1.466162     -0.214816      1.371911
  H      -0.550540     -0.640622      1.490166
  H      -2.000705     -0.475892      2.134366
  O      -1.702426     -0.364284     -1.320268
  H      -1.822537     -0.466119     -0.341281
  H      -2.483639     -0.757581     -1.733906
  O      -0.571825      2.076677     -0.037616
  H      -0.944989      1.541230      0.694894
  H      -0.981760      1.668118     -0.821648
  O       0.953755     -1.209637      1.405636
  H       0.961609     -1.532373      0.464900
  H       1.519664     -0.415838      1.337751
  O       0.970278     -1.413987     -1.342019
  H       0.053655     -1.111889     -1.524003
  H       1.476674     -0.580227     -1.276286
  O       1.944245      1.056739     -0.091352
  H       1.077789      1.552764     -0.084115
  H       2.629148      1.731999     -0.198570
18
Coordinates from ORCA-job 09_H2O_6_prism E -458.880824369414
  O      -1.463706     -0.209423      1.371735
  H      -0.548283     -0.638204      1.489123
  H      -1.997291     -0.471790      2.134115
  O      -1.693977     -0.366299     -1.324067
  H      -1.815661     -0.465458     -0.345165
  H      -2.474055     -0.761684     -1.737279
  O      -0.574403      2.080462     -0.033143
  H      -0.945631      1.542082      0.698539
  H      -0.981722      1.671518     -0.818242
  O       0.956014     -1.212865      1.404688
  H       0.960790     -1.531693      0.462006
  H       1.520891     -0.418468      1.337070
  O       0.966159     -1.413105     -1.338602
  H       0.049425     -1.110400     -1.520616
  H       1.473396     -0.579650     -1.273512
  O       1.936405      1.052708     -0.092982
  H       1.070852      1.550939     -0.083720
  H       2.623034      1.725592     -0.201389
18
Coordinates from ORCA-job 09_H2O_6_prism E -458.880832750899
  O      -1.462174     -0.205049      1.373016
  H      -0.546731     -0.636308      1.489429
  H      -1.995175     -0.468148      2.135342
  O      -1.688017     -0.365537     -1.326684
  H      -1.811396     -0.463818     -0.348152
  H      -2.466380     -0.761909     -1.741681
  O      -0.578166      2.081350     -0.029823
  H      -0.947417      1.540764      0.701585
  H      -0.984385      1.671240     -0.814849
  O       0.956932     -1.215523      1.405053
  H       0.960687     -1.530971      0.460601
  H       1.521287     -0.420911      1.336309
  O       0.965799     -1.410441     -1.335173
  H       0.049152     -1.107652     -1.518135
  H       1.472936     -0.576651     -1.269642
  O       1.930202      1.048562     -0.096754
  H       1.065363      1.547542     -0.085132
  H       2.619721      1.717721     -0.206748
18
Coordinates from ORCA-job 09_H2O_6_prism E -458.880839654251
  O      -1.461272     -0.202602      1.375042
  H      -0.546212     -0.635550      1.490810
  H      -1.994548     -0.465951      2.137098
  O      -1.685550     -0.362772     -1.328126
  H      -1.809934     -0.461673     -0.350089
  H      -2.462472     -0.759212     -1.745626
  O      -0.582123      2.081380     -0.027674
  H      -0.949416      1.539043      0.703668
  H      -0.988717      1.669915     -0.811836
  O       0.956532     -1.218126      1.406977
  H       0.961206     -1.531071      0.461262
  H       1.520816     -0.423503      1.336830
  O       0.968978     -1.408195     -1.332854
  H       0.052644     -1.105699     -1.517459
  H       1.475289     -0.573625     -1.266465
  O       1.926451      1.045769     -0.101764
  H       1.062053      1.544391     -0.087771
  H       2.618511      1.711746     -0.213463
18
Coordinates from ORCA-job 09_H2O_6_prism E -458.880841357511
  O      -1.460272     -0.201584      1.376887
  H      -0.546245     -0.635831      1.492498
  H      -1.994704     -0.464978      2.138278
  O      -1.685100     -0.359415     -1.329023
  H      -1.809675     -0.459459     -0.351430
  H      -2.461326     -0.755621     -1.748243
  O      -0.585443      2.082580     -0.026037
  H      -0.950743      1.538368      0.705028
  H      -0.993129      1.670019     -0.809148
  O       0.955523     -1.221341      1.409742
  H       0.961942     -1.532301      0.463211
  H       1.519875     -0.426669      1.339048
  O       0.973744     -1.407749     -1.331606
  H       0.057900     -1.105572     -1.518164
  H       1.478956     -0.572307     -1.264611
  O       1.923968      1.044499     -0.106910
  H       1.059792      1.542583     -0.090684
  H       2.617174      1.709040     -0.220273
18
Coordinates from ORCA-job 09_H2O_6_prism E -458.880837494034
  O      -1.458796     -0.201153      1.378308
  H      -0.546311     -0.636830      1.494176
  H      -1.995086     -0.464528      2.138574
  O      -1.685073     -0.355914     -1.329824
  H      -1.809412     -0.457141     -0.352582
  H      -2.461270     -0.751910     -1.749628
  O      -0.588055      2.085452     -0.024508
  H      -0.951231      1.538917      0.705938
  H      -0.997083      1.672046     -0.806615
  O       0.954521     -1.225554      1.412678
  H       0.962763     -1.534615      0.465560
  H       1.518864     -0.430718      1.342745
  O       0.978922     -1.409059     -1.330763
  H       0.063714     -1.107041     -1.519534
  H       1.482952     -0.572756     -1.263508
  O       1.921376      1.044107     -0.111924
  H       1.057266      1.541963     -0.093559
  H       2.614177      1.708997     -0.226972
18
Coordinates from ORCA-job 09_H2O_6_prism E -458.880829661309
  O      -1.456861     -0.200832      1.379268
  H      -0.546075     -0.638265      1.495706
  H      -1.995399     -0.464132      2.138060
  O      -1.684551     -0.352379     -1.330509
  H      -1.808680     -0.454717     -0.353505
  H      -2.461158     -0.748243     -1.749963
  O      -0.589914      2.089298     -0.023297
  H      -0.950984      1.540187      0.706299
  H      -1.000307      1.675238     -0.804524
  O       0.953911     -1.230439      1.415051
  H       0.963605     -1.537692      0.467488
  H       1.518141     -0.435384      1.347288
  O       0.983616     -1.411385     -1.329762
  H       0.069136     -1.109324     -1.520939
  H       1.486498     -0.574303     -1.262361
  O       1.918130      1.043977     -0.116416
  H       1.053930      1.542012     -0.096209
  H       2.609199      1.710647     -0.233115
18
Coordinates from ORCA-job 09_H2O_6_prism E -458.880822121190
  O      -1.454796     -0.200452      1.379858
  H      -0.545381     -0.639798      1.497019
  H      -1.995458     -0.463600      2.137150
  O      -1.683215     -0.349051     -1.330830
  H      -1.807540     -0.452438     -0.353955
  H      -2.460295     -0.744794     -1.749631
  O      -0.591112      2.092681     -0.022904
  H      -0.950391      1.541314      0.705914
  H      -1.002683      1.678166     -0.803454
  O       0.953834     -1.235003      1.416244
  H       0.964318     -1.540829      0.468359
  H       1.517963     -0.439824      1.351670
  O       0.986890     -1.413466     -1.328346
  H       0.073109     -1.111254     -1.521865
  H       1.488851     -0.575799     -1.260553
  O       1.914602      1.043677     -0.119798
  H       1.050167      1.542078     -0.098413
  H       2.603375      1.712652     -0.237906
18
Coordinates from ORCA-job 09_H2O_6_prism E -458.880818112063
  O      -1.452680     -0.200010      1.380367
  H      -0.544206     -0.641347      1.498335
  H      -1.995185     -0.462947      2.136283
  O      -1.681094     -0.345800     -1.330658
  H      -1.806146     -0.450343     -0.353874
  H      -2.458387     -0.741356     -1.749187
  O      -0.592225      2.094912     -0.023539
  H      -0.949933      1.541780      0.704756
  H      -1.004776      1.680161     -0.803600
  O       0.954112     -1.238920      1.416373
  H       0.964797     -1.543721      0.468217
  H       1.518321     -0.443825      1.355681
  O       0.988677     -1.414477     -1.326456
  H       0.075532     -1.112169     -1.522269
  H       1.490020     -0.576444     -1.257708
  O       1.911172      1.043050     -0.122243
  H       1.046404      1.541691     -0.100377
  H       2.597834      1.714028     -0.241540
18
Coordinates from ORCA-job 09_H2O_6_prism E -458.880819202650
  O      -1.450416     -0.199601      1.381037
  H      -0.542556     -0.642984      1.499894
  H      -1.994538     -0.462326      2.135709
  O      -1.678303     -0.342513     -1.329966
  H      -1.804555     -0.448443     -0.353299
  H      -2.455333     -0.737799     -1.749089
  O      -0.593937      2.096009     -0.025175
  H      -0.950012      1.541490      0.702912
  H      -1.007268      1.681363     -0.804971
  O       0.954493     -1.242282      1.415858
  H       0.964939     -1.546308      0.467384
  H       1.519103     -0.447537      1.359569
  O       0.989161     -1.414088     -1.324180
  H       0.076570     -1.111902     -1.522334
  H       1.490249     -0.575939     -1.253737
  O       1.908159      1.042173     -0.124151
  H       1.043021      1.540681     -0.102386
  H       2.593461      1.714269     -0.244516
18
Coordinates from ORCA-job 09_H2O_6_prism E -458.880825259575
  O      -1.448290     -0.199446      1.381884
  H      -0.540806     -0.644551      1.501569
  H      -1.993679     -0.462093      2.135587
  O      -1.675527     -0.339770     -1.328916
  H      -1.803050     -0.447092     -0.352405
  H      -2.451781     -0.734777     -1.749614
  O      -0.596471      2.096282     -0.027292
  H      -0.950842      1.540758      0.700889
  H      -1.010247      1.682274     -0.807180
  O       0.954681     -1.244804      1.415309
  H       0.964663     -1.548197      0.466447
  H       1.520012     -0.450602      1.363019
  O       0.988576     -1.412526     -1.322129
  H       0.076340     -1.110776     -1.522332
  H       1.489846     -0.574542     -1.249539
  O       1.906324      1.041464     -0.125598
  H       1.040924      1.539350     -0.104302
  H       2.591565      1.713309     -0.246836
18
Coordinates from ORCA-job 09_H2O_6_prism E -458.880832271082
  O      -1.446852     -0.199632      1.382633
  H      -0.539644     -0.645697      1.502833
  H      -1.993029     -0.462449      2.135755
  O      -1.673709     -0.338341     -1.327998
  H      -1.801960     -0.446552     -0.351641
  H      -2.449050     -0.733204     -1.750512
  O      -0.599112      2.096562     -0.028743
  H      -0.952021      1.540341      0.699600
  H      -1.012939      1.683631     -0.809074
  O       0.954509     -1.246325      1.415354
  H       0.964166     -1.549075      0.466089
  H       1.520568     -0.452589      1.365345
  O       0.987728     -1.411003     -1.321049
  H       0.075563     -1.109852     -1.522505
  H       1.489422     -0.573320     -1.246735
  O       1.905928      1.041361     -0.126640
  H       1.040499      1.538446     -0.105697
  H       2.592169      1.711961     -0.248454
18
Coordinates from ORCA-job 09_H2O_6_prism E -458.880836738987
  O      -1.446257     -0.199999      1.383057
  H      -0.539314     -0.646351      1.503415
  H      -1.992866     -0.463165      2.135856
  O      -1.672954     -0.338053     -1.327461
  H      -1.801313     -0.446517     -0.351195
  H      -2.447704     -0.732914     -1.751156
  O      -0.600892      2.097323     -0.029091
  H      -0.952866      1.540588      0.699248
  H      -1.014597      1.685557     -0.809993
  O       0.954165     -1.247204      1.415908
  H       0.963803     -1.549259      0.466308
  H       1.520665     -0.453682      1.366427
  O       0.987348     -1.410513     -1.320875
  H       0.075078     -1.109860     -1.522820
  H       1.489346     -0.573045     -1.245715
  O       1.906215      1.041787     -0.127382
  H       1.040896      1.538318     -0.106438
  H       2.593484      1.711251     -0.249533
18
Coordinates from ORCA-job 09_H2O_6_prism E -458.880839101171
  O      -1.446129     -0.200451      1.383342
  H      -0.539507     -0.646869      1.503681
  H      -1.993101     -0.464105      2.135821
  O      -1.672478     -0.338049     -1.327028
  H      -1.800755     -0.446481     -0.350819
  H      -2.446909     -0.732932     -1.751403
  O      -0.601958      2.098486     -0.028900
  H      -0.953313      1.541246      0.699248
  H      -1.015607      1.688039     -0.810433
  O       0.953814     -1.248105      1.416643
  H       0.963659     -1.549296      0.466702
  H       1.520581     -0.454668      1.366935
  O       0.987446     -1.410858     -1.320973
  H       0.075030     -1.110624     -1.523173
  H       1.489508     -0.573461     -1.245340
  O       1.906432      1.042469     -0.128143
  H       1.041215      1.538641     -0.106971
  H       2.594309      1.711280     -0.250626
