3
Coordinates from ORCA-job 01_H2O E -76.083585347813
  O       0.000000      0.000000      0.124348
  H       0.000000     -1.431393     -0.986748
  H       0.000000      1.431393     -0.986748
3
Coordinates from ORCA-job 01_H2O E -76.119131125426
  O       0.000000     -0.000000      0.100142
  H       0.000000     -1.318660     -0.974645
  H       0.000000      1.318660     -0.974645
3
Coordinates from ORCA-job 01_H2O E -76.159496741906
  O       0.000000     -0.000000      0.070349
  H       0.000000     -1.211231     -0.959748
  H       0.000000      1.211231     -0.959748
3
Coordinates from ORCA-job 01_H2O E -76.204313842640
  O       0.000000     -0.000000      0.033994
  H       0.000000     -1.110831     -0.941571
  H       0.000000      1.110831     -0.941571
3
Coordinates from ORCA-job 01_H2O E -76.252576376851
  O       0.000000     -0.000000     -0.008135
  H       0.000000     -1.017193     -0.920507
  H       0.000000      1.017193     -0.920507
3
Coordinates from ORCA-job 01_H2O E -76.302011862555
  O       0.000000      0.000000     -0.055218
  H       0.000000     -0.929798     -0.896965
  H       0.000000      0.929798     -0.896965
3
Coordinates from ORCA-job 01_H2O E -76.348164900391
  O       0.000000     -0.000000     -0.106267
  H       0.000000     -0.847702     -0.871441
  H       0.000000      0.847702     -0.871441
3
Coordinates from ORCA-job 01_H2O E -76.382017864406
  O       0.000000     -0.000000     -0.162589
  H       0.000000     -0.773147     -0.843280
  H       0.000000      0.773147     -0.843280
3
Coordinates from ORCA-job 01_H2O E -76.388067267447
  O       0.000000      0.000000     -0.233874
  H       0.000000     -0.725583     -0.807637
  H       0.000000      0.725583     -0.807637
3
Coordinates from ORCA-job 01_H2O E -76.390501299614
  O       0.000000     -0.000000     -0.221305
  H       0.000000     -0.764479     -0.813922
  H       0.000000      0.764479     -0.813922
3
Coordinates from ORCA-job 01_H2O E -76.390625625543
  O       0.000000      0.000003     -0.225445
  H       0.000000     -0.760045     -0.811853
  H       0.000000      0.760042     -0.811850
3
Coordinates from ORCA-job 01_H2O E -76.390627275722
  O       0.000000     -0.000069     -0.225937
  H       0.000000     -0.759343     -0.811579
  H       0.000000      0.759412     -0.811632
3
Coordinates from ORCA-job 01_H2O E -76.390617795225
  O       0.000000      0.001534     -0.226045
  H       0.000000     -0.760001     -0.812143
  H       0.000000      0.758467     -0.810960
3
Coordinates from ORCA-job 01_H2O E -76.390627339646
  O       0.000000      0.000000     -0.225923
  H       0.000000     -0.759397     -0.811613
  H       0.000000      0.759397     -0.811613
3
Coordinates from ORCA-job 01_H2O E -76.390627338058
  O       0.000000      0.000000     -0.225924
  H       0.000000     -0.759396     -0.811612
  H       0.000000      0.759396     -0.811612
