6
Coordinates from ORCA-job 02_H2O_2 E -152.166851045640
  O       0.126296      2.818638      0.000000
  H      -1.550121      3.502286      0.000000
  H      -0.112133      1.010449      0.000000
  O      -0.117432     -2.680353      0.000000
  H       0.760788     -3.353712     -1.436577
  H       0.760788     -3.353712      1.436577
6
Coordinates from ORCA-job 02_H2O_2 E -152.208477698669
  O       0.285050      2.659885     -0.000001
  H      -1.391367      3.343533      0.000002
  H       0.046620      0.851695     -0.000000
  O      -0.276186     -2.521600     -0.000000
  H       0.602035     -3.194959     -1.277824
  H       0.602035     -3.194959      1.277824
6
Coordinates from ORCA-job 02_H2O_2 E -152.176878457349
  O       0.126296      2.818638     -0.000564
  H      -1.550121      3.502286      0.002411
  H       0.205373      1.010449     -0.000441
  O      -0.434939     -2.680353     -0.000217
  H       0.760788     -3.353712     -1.119071
  H       0.760788     -3.353712      1.119071
6
Coordinates from ORCA-job 02_H2O_2 E -152.289532068336
  O      -0.032457      2.977392      0.021125
  H      -1.708874      3.661039     -0.090516
  H       0.046620      1.169202      0.018776
  O      -0.276186     -2.839106      0.009188
  H       0.602035     -3.512465     -0.960317
  H       0.602035     -3.512465      0.960317
6
Coordinates from ORCA-job 02_H2O_2 E -152.309441790632
  O       0.126296      2.818638      0.179878
  H      -1.550121      3.502286     -0.249269
  H      -0.112133      1.010449      0.177529
  O      -0.117432     -2.680353      0.167941
  H       0.443282     -3.353712     -1.119071
  H       0.760788     -3.353712      0.801564
6
Coordinates from ORCA-job 02_H2O_2 E -152.442897716112
  O      -0.032457      2.659885      0.338632
  H      -1.391367      3.343533     -0.408023
  H       0.046620      0.851695      0.336283
  O       0.041321     -2.521600      0.009188
  H       0.284529     -3.194959     -0.960317
  H       0.602035     -3.194959      0.642811
6
Coordinates from ORCA-job 02_H2O_2 E -152.485917789888
  O      -0.191210      2.501132      0.179878
  H      -1.232614      3.184780     -0.566776
  H       0.205373      0.692942      0.495036
  O      -0.117432     -2.362847     -0.149565
  H       0.125776     -3.036205     -0.801564
  H       0.443282     -3.036205      0.484058
6
Coordinates from ORCA-job 02_H2O_2 E -152.409816537066
  O      -0.349963      2.342379      0.021125
  H      -1.073861      3.026026     -0.408023
  H       0.364126      0.534189      0.653789
  O       0.041321     -2.204094     -0.308318
  H      -0.032977     -2.877452     -0.642811
  H       0.602035     -2.877452      0.642811
6
Coordinates from ORCA-job 02_H2O_2 E -152.327173262664
  O      -0.508716      2.183626     -0.137628
  H      -0.915108      2.867273     -0.249269
  H       0.522879      0.375436      0.812542
  O       0.200074     -2.045340     -0.467072
  H      -0.191731     -2.718699     -0.484058
  H       0.760788     -2.718699      0.801564
6
Coordinates from ORCA-job 02_H2O_2 E -152.480489533323
  O      -0.349963      2.342379      0.021125
  H      -1.073861      3.026026     -0.090516
  H       0.364126      0.534189      0.653789
  O       0.358827     -2.204094     -0.308318
  H      -0.032977     -2.877452     -0.642811
  H       0.919542     -2.877452      0.642811
6
Coordinates from ORCA-job 02_H2O_2 E -152.509909931670
  O      -0.191210      2.501132      0.179878
  H      -1.232614      3.184780      0.068237
  H       0.205373      0.692942      0.495036
  O       0.517580     -2.362847     -0.149565
  H      -0.191731     -3.036205     -0.801564
  H       1.078295     -3.036205      0.484058
6
Coordinates from ORCA-job 02_H2O_2 E -152.472969653734
  O      -0.032457      2.342379      0.021125
  H      -1.073861      3.026026      0.226990
  H       0.046620      0.534189      0.653789
  O       0.676333     -2.204094      0.009188
  H      -0.032977     -2.877452     -0.642811
  H       0.919542     -2.877452      0.325305
6
Coordinates from ORCA-job 02_H2O_2 E -152.519831420904
  O       0.126296      2.183626     -0.137628
  H      -0.915108      2.867273      0.385743
  H      -0.112133      0.375436      0.812542
  O       0.517580     -2.045340     -0.149565
  H      -0.191731     -2.718699     -0.484058
  H       0.760788     -2.718699      0.484058
6
Coordinates from ORCA-job 02_H2O_2 E -152.508345856634
  O       0.285050      2.024873      0.021125
  H      -0.756355      2.708520      0.226990
  H       0.046620      0.216683      0.653789
  O       0.358827     -1.886587     -0.308318
  H      -0.350484     -2.559946     -0.325305
  H       0.919542     -2.559946      0.642811
6
Coordinates from ORCA-job 02_H2O_2 E -152.548091023490
  O       0.126296      1.866119      0.069803
  H      -0.597602      2.549767      0.068237
  H      -0.112133      0.057930      0.812542
  O       0.200074     -1.727834     -0.149565
  H      -0.509237     -2.401193     -0.183388
  H       1.078295     -2.401193      0.484058
6
Coordinates from ORCA-job 02_H2O_2 E -152.498451930522
  O       0.285050      1.707366      0.020210
  H      -0.756355      2.391014     -0.039023
  H      -0.063920     -0.100824      0.653789
  O       0.041321     -1.569081      0.009188
  H      -0.350484     -2.242440     -0.342141
  H       1.134870     -2.242440      0.325305
6
Coordinates from ORCA-job 02_H2O_2 E -152.466945139248
  O       0.443803      1.548613      0.061822
  H      -0.915108      2.232261      0.020240
  H       0.094833     -0.259577      0.495036
  O      -0.117432     -1.410328      0.167941
  H      -0.191731     -2.083686     -0.485281
  H       0.976117     -2.083686      0.176322
6
Coordinates from ORCA-job 02_H2O_2 E -152.505477838131
  O       0.285050      1.389860      0.220575
  H      -0.756355      2.073508     -0.138513
  H       0.253586     -0.100824      0.653789
  O       0.041321     -1.251575      0.009188
  H      -0.350484     -2.043606     -0.326528
  H       1.134870     -2.242440      0.335075
6
Coordinates from ORCA-job 02_H2O_2 E -152.444229525854
  O       0.126296      1.231107      0.379328
  H      -0.597602      1.914754     -0.297266
  H       0.412339      0.057930      0.812542
  O       0.200074     -1.092821     -0.149565
  H      -0.509237     -2.202359     -0.167774
  H       1.293624     -2.401193      0.493828
6
Coordinates from ORCA-job 02_H2O_2 E -152.447675872661
  O      -0.032457      1.389860      0.538081
  H      -0.438848      2.073508     -0.138513
  H       0.253586      0.216683      0.971295
  O       0.358827     -1.251575     -0.308318
  H      -0.667990     -2.043606     -0.009021
  H       1.452377     -2.559946      0.652581
6
Coordinates from ORCA-job 02_H2O_2 E -152.451539981284
  O      -0.191210      1.231107      0.614825
  H      -0.280095      1.914754      0.020240
  H       0.412339      0.375436      0.812542
  O       0.200074     -1.092821     -0.467072
  H      -0.826743     -1.884853      0.149732
  H       1.611130     -2.463664      0.811335
6
Coordinates from ORCA-job 02_H2O_2 E -152.393874442867
  O      -0.349963      1.072354      0.773578
  H      -0.121342      1.756001     -0.138513
  H       0.571092      0.534189      0.653789
  O       0.041321     -0.934068     -0.625825
  H      -0.985496     -1.726100      0.308485
  H       1.769883     -2.304910      0.970088
6
Coordinates from ORCA-job 02_H2O_2 E -152.394839764689
  O      -0.191210      1.231107      0.932331
  H       0.037411      1.597248     -0.297266
  H       0.412339      0.641281      0.812542
  O      -0.117432     -1.092821     -0.784578
  H      -0.826743     -1.884853      0.149732
  H       1.928636     -2.146157      1.128841
6
Coordinates from ORCA-job 02_H2O_2 E -152.434374977994
  O      -0.032457      1.072354      0.773578
  H      -0.121342      1.438495     -0.456019
  H       0.571092      0.482528      0.971295
  O       0.041321     -0.934068     -0.625825
  H      -0.667990     -1.726100     -0.009021
  H       1.769883     -1.987404      0.970088
6
Coordinates from ORCA-job 02_H2O_2 E -152.391971604640
  O       0.126296      1.231107      0.932331
  H      -0.280095      1.279742     -0.614772
  H       0.729845      0.641281      1.130048
  O      -0.117432     -1.092821     -0.784578
  H      -0.509237     -1.884853     -0.167774
  H       1.928636     -2.146157      1.128841
6
Coordinates from ORCA-job 02_H2O_2 E -152.469494908447
  O      -0.032457      1.072354      0.773578
  H      -0.121342      1.120989     -0.456019
  H       0.571092      0.482528      1.288802
  O       0.041321     -0.934068     -0.625825
  H      -0.667990     -1.726100     -0.326528
  H       1.769883     -1.987404      0.970088
6
Coordinates from ORCA-job 02_H2O_2 E -152.435503942434
  O       0.029896      0.913600      0.614825
  H       0.037411      0.962235     -0.297266
  H       0.729845      0.323775      1.447555
  O      -0.039051     -0.775315     -0.467072
  H      -0.826743     -1.567347     -0.167774
  H       1.611130     -1.828651      0.814331
6
Coordinates from ORCA-job 02_H2O_2 E -152.471868041442
  O      -0.123551      1.072354      0.773578
  H       0.196164      1.120989     -0.138513
  H       0.571092      0.165022      1.288802
  O       0.119702     -0.934068     -0.308318
  H      -0.985496     -1.726100     -0.326528
  H       1.497830     -1.987404      0.655578
6
Coordinates from ORCA-job 02_H2O_2 E -152.442557910152
  O      -0.282304      1.231107      0.932331
  H       0.354917      1.279742      0.020240
  H       0.412339      0.006269      1.130048
  O       0.278455     -1.092821     -0.149565
  H      -1.144250     -1.884853     -0.167774
  H       1.339076     -2.146157      0.496825
6
Coordinates from ORCA-job 02_H2O_2 E -152.388134704583
  O      -0.441057      1.389860      1.091084
  H       0.513671      1.438495      0.178993
  H       0.253586     -0.152484      0.971295
  O       0.437209     -1.251575      0.009188
  H      -1.303003     -2.043606     -0.009021
  H       1.180323     -2.304910      0.338072
6
Coordinates from ORCA-job 02_H2O_2 E -152.539302663667
  O      -0.282304      1.231107      0.932331
  H       0.354917      1.279742      0.337747
  H       0.094833      0.006269      1.130048
  O       0.278455     -1.092821      0.167941
  H      -1.144250     -1.884853      0.149732
  H       1.021570     -2.146157      0.496825
6
Coordinates from ORCA-job 02_H2O_2 E -152.515302005548
  O      -0.123551      1.072354      0.773578
  H       0.513671      1.438495      0.178993
  H      -0.063920     -0.152484      0.971295
  O       0.437209     -0.934068      0.326694
  H      -1.303003     -1.726100      0.308485
  H       0.862817     -1.987404      0.338072
6
Coordinates from ORCA-job 02_H2O_2 E -152.591982340777
  O      -0.282304      1.231107      0.786906
  H       0.672424      1.279742      0.337747
  H       0.094833      0.006269      0.812542
  O       0.278455     -1.092821      0.485447
  H      -1.144250     -1.567347      0.149732
  H       1.021570     -1.828651      0.179319
6
Coordinates from ORCA-job 02_H2O_2 E -152.641593861112
  O      -0.175945      1.072354      0.779981
  H       0.513671      1.120989      0.274850
  H       0.253586      0.165022      0.653789
  O       0.119702     -1.251575      0.512091
  H      -0.985496     -1.408594      0.308485
  H       1.180323     -1.669898      0.338072
6
Coordinates from ORCA-job 02_H2O_2 E -152.518908003819
  O      -0.334699      1.231107      0.938734
  H       0.672424      0.962235      0.433603
  H       0.391251      0.006269      0.495036
  O       0.278455     -1.410328      0.353338
  H      -0.826743     -1.567347      0.467238
  H       1.021570     -1.511145      0.496825
6
Coordinates from ORCA-job 02_H2O_2 E -152.495544923818
  O      -0.451238      1.300564      0.985612
  H       0.831177      0.951199      0.280157
  H       0.550004     -0.038467      0.597780
  O       0.119702     -1.497764      0.194585
  H      -0.667990     -1.563487      0.625991
  H       1.180323     -1.387607      0.655578
6
Coordinates from ORCA-job 02_H2O_2 E -152.652534065623
  O      -0.292485      1.141811      0.826859
  H       0.672424      1.109953      0.121404
  H       0.391251      0.120286      0.756533
  O       0.278455     -1.339011      0.252266
  H      -0.826743     -1.404734      0.467238
  H       1.021570     -1.546360      0.814331
6
Coordinates from ORCA-job 02_H2O_2 E -152.540746273930
  O      -0.133731      0.983058      0.668106
  H       0.513671      1.268706     -0.037349
  H       0.232497      0.279040      0.915286
  O       0.437209     -1.180257      0.411019
  H      -0.985496     -1.245981      0.308485
  H       0.862817     -1.705113      0.655578
6
Coordinates from ORCA-job 02_H2O_2 E -152.147517905409
  O       0.025022      0.824305      0.826859
  H       0.354917      1.427459     -0.196102
  H       0.391251      0.437793      1.074039
  O       0.595962     -1.021504      0.569772
  H      -1.144250     -1.087228      0.149732
  H       0.704064     -1.863866      0.814331
6
Coordinates from ORCA-job 02_H2O_2 E -152.568266180811
  O       0.183775      0.983058      0.668106
  H       0.196164      1.268706     -0.037349
  H       0.232497      0.279040      1.232793
  O       0.437209     -1.180257      0.411019
  H      -0.985496     -1.245981      0.308485
  H       0.862817     -2.022619      0.973084
6
Coordinates from ORCA-job 02_H2O_2 E -152.293414415565
  O       0.342528      0.824305      0.826859
  H       0.037411      1.348916     -0.196102
  H       0.391251      0.437793      1.391546
  O       0.595962     -1.021504      0.569772
  H      -1.144250     -1.087228      0.149732
  H       1.021570     -2.181372      0.814331
6
Coordinates from ORCA-job 02_H2O_2 E -152.424599852277
  O       0.501281      0.983058      0.985612
  H      -0.121342      1.284408     -0.354855
  H       0.412450      0.279040      1.550299
  O       0.437209     -1.180257      0.411019
  H      -0.985496     -0.928474     -0.009021
  H       1.098967     -2.340126      0.973084
6
Coordinates from ORCA-job 02_H2O_2 E -152.498880671656
  O       0.660034      1.141811      1.144365
  H       0.037411      1.125655     -0.196102
  H       0.253697      0.120286      1.391546
  O       0.278455     -1.339011      0.252266
  H      -0.826743     -1.087228      0.149732
  H       1.257720     -2.181372      1.131838
6
Coordinates from ORCA-job 02_H2O_2 E -152.547664538353
  O       0.612559      1.154213      1.086128
  H       0.196164      1.284408     -0.037349
  H       0.094943      0.150250      1.232793
  O       0.125648     -1.422335      0.093512
  H      -0.667990     -1.245981      0.308485
  H       1.220051     -2.022619      1.290591
6
Coordinates from ORCA-job 02_H2O_2 E -152.626682772380
  O       0.624396      1.277633      0.927374
  H       0.354917      1.443161      0.121404
  H      -0.063810      0.309004      1.074039
  O       0.284401     -1.581088      0.093670
  H      -0.826743     -1.404734      0.467238
  H       1.061297     -2.082671      1.131838
6
Coordinates from ORCA-job 02_H2O_2 E -152.636274261040
  O       0.465642      1.436386      1.005290
  H       0.513671      1.284408     -0.037349
  H       0.094943      0.304964      1.232793
  O       0.443154     -1.739841      0.252423
  H      -0.911063     -1.245981      0.308485
  H       0.902544     -2.241424      0.973084
6
Coordinates from ORCA-job 02_H2O_2 E -152.714170407582
  O       0.451323      1.277633      0.942468
  H       0.476426      1.443161      0.091828
  H       0.216826      0.407410      1.253373
  O       0.422491     -1.628870      0.227921
  H      -0.752309     -1.347666      0.358201
  H       0.762266     -2.190904      1.121509
6
Coordinates from ORCA-job 02_H2O_2 E -152.718957948748
  O       0.292570      1.215782      0.941262
  H       0.635179      1.506993     -0.066925
  H       0.274964      0.486616      1.412126
  O       0.283535     -1.564647      0.198747
  H      -0.619630     -1.506419      0.516954
  H       0.921019     -2.032151      0.962756
6
Coordinates from ORCA-job 02_H2O_2 E -152.706621081663
  O       0.314230      1.303984      0.918457
  H       0.476426      1.473638      0.033380
  H       0.319289      0.563952      1.438945
  O       0.366295     -1.649194      0.341490
  H      -0.521933     -1.456013      0.358201
  H       0.762266     -2.141102      0.804002
6
Coordinates from ORCA-job 02_H2O_2 E -152.774058897341
  O       0.325573      1.391662      0.961932
  H       0.375697      1.351957      0.031446
  H       0.323115      0.416225      1.291912
  O       0.386189     -1.683298      0.241969
  H      -0.537673     -1.325663      0.427892
  H       0.750464     -2.215480      0.962756
6
Coordinates from ORCA-job 02_H2O_2 E -152.747829802245
  O       0.356174      1.367739      1.002965
  H       0.229376      1.193204     -0.046863
  H       0.481868      0.548085      1.359128
  O       0.319239     -1.579736      0.283488
  H      -0.546491     -1.484416      0.269138
  H       0.833484     -2.056727      1.059233
6
Coordinates from ORCA-job 02_H2O_2 E -152.763368424354
  O       0.366870      1.372966      1.009318
  H       0.388130      1.351957      0.011590
  H       0.323115      0.521871      1.217266
  O       0.374279     -1.576930      0.219045
  H      -0.680079     -1.643169      0.427892
  H       0.737333     -2.013927      1.056830
6
Coordinates from ORCA-job 02_H2O_2 E -152.707798286276
  O       0.208117      1.531719      0.940319
  H       0.546883      1.510710      0.132501
  H       0.481868      0.400670      1.376020
  O       0.371356     -1.735683      0.208788
  H      -0.521326     -1.484416      0.586645
  H       0.578579     -2.172681      0.898077
6
Coordinates from ORCA-job 02_H2O_2 E -152.762135575357
  O       0.238009      1.459760      0.988255
  H       0.484465      1.398572      0.015603
  H       0.440156      0.411079      1.269326
  O       0.363982     -1.667399      0.183132
  H      -0.531539     -1.513206      0.503132
  H       0.603210     -2.027524      1.056830
6
Coordinates from ORCA-job 02_H2O_2 E -152.689673290996
  O       0.387743      1.301007      1.016800
  H       0.325712      1.239819     -0.020610
  H       0.281403      0.569832      1.110573
  O       0.353735     -1.508646      0.341885
  H      -0.658694     -1.409393      0.344379
  H       0.761963     -2.160444      0.969155
6
Coordinates from ORCA-job 02_H2O_2 E -152.683024534974
  O       0.546496      1.142254      1.100224
  H       0.166959      1.398572      0.138143
  H       0.376396      0.411079      0.951820
  O       0.512488     -1.532381      0.278487
  H      -0.594400     -1.250640      0.185626
  H       0.603210     -2.001690      1.127908
6
Coordinates from ORCA-job 02_H2O_2 E -152.680437458301
  O       0.387743      1.301007      0.941471
  H       0.325712      1.239819     -0.020610
  H       0.217643      0.569832      1.110573
  O       0.353735     -1.373628      0.437240
  H      -0.435647     -1.409393      0.344379
  H       0.761963     -2.160444      0.969155
6
Coordinates from ORCA-job 02_H2O_2 E -152.611315825931
  O       0.228990      1.459760      1.050152
  H       0.484465      1.081066     -0.179363
  H       0.058889      0.728585      1.269326
  O       0.194982     -1.532381      0.595993
  H      -0.594400     -1.568146      0.503132
  H       0.920716     -2.319197      0.810402
6
Coordinates from ORCA-job 02_H2O_2 E -152.557423384677
  O       0.387743      1.618513      0.891399
  H       0.325712      0.922312     -0.020610
  H      -0.099864      0.569832      1.428079
  O       0.197429     -1.373628      0.437240
  H      -0.435647     -1.726900      0.661885
  H       1.079470     -2.477950      0.651649
6
Coordinates from ORCA-job 02_H2O_2 E -152.443654223555
  O       0.385898      1.762092      0.732645
  H       0.484465      0.838544      0.138143
  H      -0.258617      0.411079      1.586832
  O       0.067992     -1.214875      0.278487
  H      -0.594400     -1.885653      0.820638
  H       1.238223     -2.636703      0.810402
6
Coordinates from ORCA-job 02_H2O_2 E -152.576518773449
  O       0.252768      1.603338      0.891399
  H       0.385910      0.997297      0.026417
  H      -0.099864      0.334063      1.428079
  O       0.226745     -1.373628      0.298603
  H      -0.633264     -1.726900      0.916518
  H       1.079470     -2.477950      0.868379
6
Coordinates from ORCA-job 02_H2O_2 E -152.651784482087
  O       0.094015      1.444585      1.050152
  H       0.227157      1.156050     -0.132336
  H       0.058889      0.492816      1.269326
  O       0.385498     -1.532381      0.375366
  H      -0.792018     -1.568146      1.075271
  H       0.920716     -2.319197      1.027132
6
Coordinates from ORCA-job 02_H2O_2 E -152.579734595421
  O      -0.044028      1.285832      1.096074
  H       0.385910      1.314803     -0.291089
  H      -0.099864      0.334063      1.110573
  O       0.289569     -1.691134      0.534120
  H      -0.633264     -1.409393      1.234024
  H       0.761963     -2.160444      0.868379
6
Coordinates from ORCA-job 02_H2O_2 E -152.679969897403
  O      -0.000912      1.275870      0.985757
  H       0.365933      1.473556     -0.132336
  H      -0.247170      0.390137      1.209337
  O       0.169069     -1.615321      0.639323
  H      -0.474511     -1.568146      1.075271
  H       0.920716     -2.319197      0.780068
6
Coordinates from ORCA-job 02_H2O_2 E -152.697998310321
  O       0.157841      1.423669      0.876045
  H       0.207180      1.314803      0.026417
  H      -0.088417      0.231383      1.276076
  O       0.327823     -1.475937      0.480570
  H      -0.633264     -1.726900      0.916518
  H       0.761963     -2.329122      0.938821
6
Coordinates from ORCA-job 02_H2O_2 E -152.717262551580
  O       0.089541      1.353271      0.968041
  H       0.365933      1.470055     -0.132336
  H      -0.213501      0.390137      1.123800
  O       0.315510     -1.634691      0.462569
  H      -0.716084     -1.568146      1.075271
  H       0.920716     -2.339331      0.791080
6
Coordinates from ORCA-job 02_H2O_2 E -152.773607578118
  O       0.127640      1.339077      0.951350
  H       0.207180      1.444390     -0.037771
  H      -0.119136      0.423128      1.108703
  O       0.313188     -1.610910      0.474938
  H      -0.649440     -1.632232      0.916518
  H       0.824960     -2.320764      0.901120
6
Coordinates from ORCA-job 02_H2O_2 E -152.694561459207
  O      -0.031113      1.497830      0.860638
  H       0.365933      1.447527      0.120982
  H      -0.086158      0.581881      0.949950
  O       0.154435     -1.769663      0.628400
  H      -0.490687     -1.790985      1.075271
  H       0.983713     -2.479518      0.742367
6
Coordinates from ORCA-job 02_H2O_2 E -152.781281448241
  O       0.005882      1.425225      0.884360
  H       0.223173      1.412739     -0.037771
  H      -0.102304      0.429312      1.077080
  O       0.228177     -1.690699      0.570664
  H      -0.593045     -1.721017      1.095189
  H       0.824960     -2.387461      0.901120
6
Coordinates from ORCA-job 02_H2O_2 E -152.721543317480
  O      -0.021419      1.335313      0.880139
  H       0.345619      1.567107     -0.034666
  H      -0.156804      0.588066      1.077683
  O       0.221501     -1.735773      0.560104
  H      -0.580879     -1.578959      1.199585
  H       0.880211     -2.382869      0.851904
6
Coordinates from ORCA-job 02_H2O_2 E -152.783739590553
  O       0.006702      1.404763      0.891054
  H       0.205781      1.433293     -0.050162
  H      -0.088697      0.432205      1.074484
  O       0.232209     -1.698790      0.555389
  H      -0.557254     -1.733985      1.094514
  H       0.773622     -2.362198      0.950965
6
Coordinates from ORCA-job 02_H2O_2 E -152.784994967342
  O       0.001404      1.431808      0.887477
  H       0.234147      1.435273     -0.037132
  H      -0.091259      0.473891      1.072219
  O       0.223888     -1.717661      0.567235
  H      -0.583270     -1.780310      1.093015
  H       0.828092     -2.392101      0.908759
6
Coordinates from ORCA-job 02_H2O_2 E -152.785769257496
  O       0.004189      1.420954      0.886697
  H       0.226990      1.442366     -0.044632
  H      -0.080509      0.476224      1.077096
  O       0.222390     -1.705476      0.568787
  H      -0.586290     -1.808583      1.085243
  H       0.822395     -2.378554      0.916078
6
Coordinates from ORCA-job 02_H2O_2 E -152.786404549944
  O       0.002676      1.399980      0.883375
  H       0.255923      1.433140     -0.037108
  H      -0.066125      0.468504      1.062005
  O       0.209755     -1.680048      0.580037
  H      -0.591955     -1.859377      1.086565
  H       0.841108     -2.328560      0.890738
6
Coordinates from ORCA-job 02_H2O_2 E -152.787013123323
  O      -0.003204      1.373332      0.881047
  H       0.311967      1.421955     -0.031667
  H      -0.044244      0.438950      1.037918
  O       0.185478     -1.644487      0.589602
  H      -0.586725     -1.923228      1.100097
  H       0.878090     -2.259479      0.867021
6
Coordinates from ORCA-job 02_H2O_2 E -152.787637720608
  O      -0.007720      1.344394      0.876611
  H       0.362759      1.442519     -0.012938
  H      -0.013853      0.392857      0.997562
  O       0.159316     -1.613674      0.597904
  H      -0.574447     -1.988906      1.119359
  H       0.906853     -2.175745      0.853986
6
Coordinates from ORCA-job 02_H2O_2 E -152.788132291886
  O      -0.008898      1.344364      0.875274
  H       0.369172      1.482755      0.000879
  H       0.001372      0.373846      0.971847
  O       0.151734     -1.622638      0.599553
  H      -0.559544     -1.995106      1.124698
  H       0.905209     -2.154936      0.859301
6
Coordinates from ORCA-job 02_H2O_2 E -152.788555539730
  O      -0.009937      1.319153      0.871813
  H       0.391995      1.491907      0.014969
  H       0.024303      0.344945      0.942492
  O       0.135986     -1.601015      0.613188
  H      -0.568176     -2.024890      1.120412
  H       0.934969     -2.091111      0.838315
6
Coordinates from ORCA-job 02_H2O_2 E -152.788789106794
  O      -0.004798      1.311972      0.871324
  H       0.363119      1.497523      0.011191
  H       0.043984      0.346810      0.940411
  O       0.137577     -1.595711      0.620752
  H      -0.581755     -2.032276      1.094106
  H       0.930933     -2.083725      0.842297
6
Coordinates from ORCA-job 02_H2O_2 E -152.788992760802
  O      -0.004992      1.305254      0.869890
  H       0.363732      1.536176      0.014858
  H       0.075766      0.344603      0.917718
  O       0.126094     -1.594672      0.630687
  H      -0.576187     -2.067319      1.079473
  H       0.939489     -2.062503      0.842086
6
Coordinates from ORCA-job 02_H2O_2 E -152.789039310295
  O      -0.003242      1.310913      0.869870
  H       0.351618      1.558784      0.013539
  H       0.095266      0.350134      0.908972
  O       0.123613     -1.600097      0.633948
  H      -0.576180     -2.096161      1.068943
  H       0.935007     -2.062734      0.849768
6
Coordinates from ORCA-job 02_H2O_2 E -152.789060769997
  O      -0.002785      1.317671      0.870684
  H       0.345433      1.560754      0.013116
  H       0.095344      0.357990      0.907985
  O       0.125236     -1.606617      0.632892
  H      -0.574694     -2.095368      1.067160
  H       0.931340     -2.074300      0.853928
6
Coordinates from ORCA-job 02_H2O_2 E -152.789080787927
  O      -0.002443      1.313327      0.870666
  H       0.345623      1.562235      0.014808
  H       0.098334      0.353870      0.902179
  O       0.123660     -1.602999      0.634434
  H      -0.575228     -2.097055      1.065617
  H       0.933610     -2.067083      0.853512
6
Coordinates from ORCA-job 02_H2O_2 E -152.789135804147
  O      -0.000466      1.303867      0.871426
  H       0.340606      1.574482      0.018352
  H       0.106112      0.345074      0.882077
  O       0.120752     -1.596686      0.638538
  H      -0.577565     -2.101615      1.060226
  H       0.936899     -2.053435      0.856083
6
Coordinates from ORCA-job 02_H2O_2 E -152.789228368717
  O       0.004388      1.293903      0.874471
  H       0.321106      1.593463      0.020090
  H       0.113608      0.335008      0.850730
  O       0.120708     -1.591393      0.642364
  H      -0.584659     -2.098560      1.050836
  H       0.936833     -2.046794      0.867709
6
Coordinates from ORCA-job 02_H2O_2 E -152.789358330323
  O       0.016499      1.282091      0.882993
  H       0.265122      1.622435      0.015495
  H       0.117103      0.323447      0.797946
  O       0.129220     -1.587198      0.644767
  H      -0.605199     -2.072476      1.031443
  H       0.927701     -2.059948      0.900955
6
Coordinates from ORCA-job 02_H2O_2 E -152.789440458029
  O       0.017801      1.286748      0.884391
  H       0.258053      1.612402      0.013812
  H       0.102622      0.328515      0.802077
  O       0.135531     -1.590659      0.640370
  H      -0.608524     -2.054256      1.035290
  H       0.922247     -2.077968      0.906609
6
Coordinates from ORCA-job 02_H2O_2 E -152.789506361839
  O       0.021199      1.292699      0.885797
  H       0.238754      1.626887      0.012495
  H       0.101021      0.334142      0.795252
  O       0.140330     -1.598109      0.638846
  H      -0.611305     -2.049063      1.031716
  H       0.913271     -2.097299      0.918794
6
Coordinates from ORCA-job 02_H2O_2 E -152.789548705758
  O       0.025051      1.291649      0.886480
  H       0.220733      1.643647      0.015567
  H       0.099355      0.333553      0.782227
  O       0.144188     -1.600574      0.638767
  H      -0.614115     -2.041129      1.028378
  H       0.905050     -2.107397      0.929678
6
Coordinates from ORCA-job 02_H2O_2 E -152.789561786173
  O       0.028655      1.288282      0.887548
  H       0.205080      1.656135      0.018661
  H       0.098169      0.331137      0.767534
  O       0.146975     -1.600776      0.639083
  H      -0.618716     -2.032375      1.024983
  H       0.901027     -2.112006      0.939161
6
Coordinates from ORCA-job 02_H2O_2 E -152.789569510017
  O       0.030141      1.285571      0.886929
  H       0.200014      1.664127      0.023804
  H       0.097579      0.330083      0.760150
  O       0.147398     -1.600885      0.639500
  H      -0.619612     -2.029314      1.024569
  H       0.899976     -2.110771      0.942619
6
Coordinates from ORCA-job 02_H2O_2 E -152.789574772440
  O       0.031856      1.283642      0.887597
  H       0.192777      1.669419      0.025126
  H       0.098938      0.329415      0.752348
  O       0.147783     -1.600721      0.639930
  H      -0.621889     -2.027197      1.022174
  H       0.899765     -2.110483      0.947121
6
Coordinates from ORCA-job 02_H2O_2 E -152.789578583863
  O       0.032801      1.283020      0.887887
  H       0.188884      1.672309      0.026163
  H       0.101277      0.329918      0.748067
  O       0.147315     -1.601098      0.640173
  H      -0.622966     -2.028440      1.020572
  H       0.900496     -2.108649      0.949842
6
Coordinates from ORCA-job 02_H2O_2 E -152.789585100456
  O       0.034565      1.282734      0.888314
  H       0.180734      1.675662      0.026461
  H       0.106221      0.331068      0.744572
  O       0.146761     -1.602005      0.639970
  H      -0.624352     -2.030702      1.017313
  H       0.900266     -2.106139      0.955408
6
Coordinates from ORCA-job 02_H2O_2 E -152.789603421817
  O       0.041299      1.281906      0.890128
  H       0.150446      1.678814      0.023126
  H       0.116641      0.332069      0.742711
  O       0.147391     -1.603939      0.636497
  H      -0.629214     -2.028781      1.007473
  H       0.895658     -2.101209      0.977049
6
Coordinates from ORCA-job 02_H2O_2 E -152.789625347989
  O       0.045864      1.281159      0.891515
  H       0.131146      1.672462      0.020076
  H       0.124016      0.330838      0.747479
  O       0.147046     -1.604827      0.631154
  H      -0.631669     -2.025351      1.003715
  H       0.893227     -2.090545      0.994849
6
Coordinates from ORCA-job 02_H2O_2 E -152.789654189961
  O       0.052249      1.277077      0.893418
  H       0.108881      1.662552      0.017530
  H       0.127262      0.324893      0.751424
  O       0.146941     -1.604025      0.624137
  H      -0.634528     -2.016128      1.000400
  H       0.890085     -2.070845      1.017141
6
Coordinates from ORCA-job 02_H2O_2 E -152.789675381448
  O       0.057496      1.273676      0.894728
  H       0.093891      1.656826      0.017641
  H       0.123915      0.319746      0.752254
  O       0.147447     -1.604508      0.618506
  H      -0.636438     -2.006717      0.999779
  H       0.887412     -2.053907      1.034037
6
Coordinates from ORCA-job 02_H2O_2 E -152.789657862916
  O       0.070215      1.267838      0.897862
  H       0.049466      1.662339      0.019664
  H       0.123835      0.314366      0.740034
  O       0.149587     -1.608244      0.610225
  H      -0.643944     -1.991627      0.991211
  H       0.880225     -2.030989      1.073307
6
Coordinates from ORCA-job 02_H2O_2 E -152.789692098155
  O       0.064258      1.269848      0.895980
  H       0.073303      1.662966      0.023048
  H       0.119429      0.316775      0.742642
  O       0.148814     -1.608800      0.612749
  H      -0.639993     -1.995224      0.999296
  H       0.883655     -2.036221      1.056671
6
Coordinates from ORCA-job 02_H2O_2 E -152.789696757262
  O       0.066866      1.268957      0.896611
  H       0.064742      1.664748      0.024551
  H       0.119548      0.316584      0.739225
  O       0.148936     -1.610665      0.610478
  H      -0.641260     -1.992634      0.998628
  H       0.882485     -2.029421      1.065785
6
Coordinates from ORCA-job 02_H2O_2 E -152.789699298918
  O       0.074730      1.265654      0.898388
  H       0.039957      1.674162      0.031249
  H       0.118024      0.315887      0.724396
  O       0.149602     -1.616674      0.604345
  H      -0.645036     -1.984785      0.997273
  H       0.878588     -2.008885      1.092625
6
Coordinates from ORCA-job 02_H2O_2 E -152.789702868298
  O       0.071598      1.266910      0.897626
  H       0.050305      1.673040      0.030103
  H       0.118260      0.316897      0.727561
  O       0.149283     -1.615120      0.606878
  H      -0.643256     -1.988530      0.998478
  H       0.879974     -2.016224      1.082349
6
Coordinates from ORCA-job 02_H2O_2 E -152.789704089540
  O       0.072480      1.266146      0.897782
  H       0.048281      1.674725      0.031790
  H       0.117356      0.316645      0.724946
  O       0.149273     -1.615988      0.605775
  H      -0.643303     -1.987324      0.999446
  H       0.879478     -2.012363      1.086082
6
Coordinates from ORCA-job 02_H2O_2 E -152.789706116185
  O       0.075285      1.263385      0.898279
  H       0.041776      1.682811      0.037732
  H       0.114404      0.315707      0.714109
  O       0.149322     -1.618716      0.602986
  H      -0.643447     -1.984072      1.002137
  H       0.877707     -2.000896      1.097416
6
Coordinates from ORCA-job 02_H2O_2 E -152.789706983703
  O       0.075219      1.262272      0.898262
  H       0.043234      1.684253      0.039175
  H       0.113810      0.315132      0.711863
  O       0.148936     -1.618616      0.602637
  H      -0.642863     -1.984114      1.003543
  H       0.878055     -1.997685      1.098273
6
Coordinates from ORCA-job 02_H2O_2 E -152.789708966221
  O       0.074629      1.259695      0.898247
  H       0.048724      1.688464      0.042574
  H       0.112611      0.313811      0.706014
  O       0.147599     -1.618468      0.602050
  H      -0.641147     -1.985736      1.007347
  H       0.879727     -1.989271      1.099315
6
Coordinates from ORCA-job 02_H2O_2 E -152.789710502561
  O       0.073477      1.258024      0.898279
  H       0.056141      1.691737      0.044824
  H       0.111684      0.312991      0.701724
  O       0.146023     -1.618450      0.601799
  H      -0.639235     -1.988827      1.011064
  H       0.882194     -1.982052      1.098509
6
Coordinates from ORCA-job 02_H2O_2 E -152.789711545597
  O       0.071763      1.257883      0.898320
  H       0.064542      1.692926      0.045148
  H       0.111244      0.313052      0.700528
  O       0.144602     -1.618517      0.602045
  H      -0.637368     -1.992789      1.013998
  H       0.884858     -1.978514      1.095306
6
Coordinates from ORCA-job 02_H2O_2 E -152.789712237080
  O       0.070640      1.258823      0.898397
  H       0.069215      1.692243      0.044139
  H       0.111036      0.313638      0.701801
  O       0.144017     -1.618780      0.602234
  H      -0.636383     -1.995094      1.015252
  H       0.886215     -1.978809      1.092728
6
Coordinates from ORCA-job 02_H2O_2 E -152.789712916186
  O       0.069647      1.260345      0.898499
  H       0.072756      1.690497      0.042368
  H       0.110675      0.314551      0.704530
  O       0.143831     -1.619167      0.602304
  H      -0.635648     -1.996514      1.016098
  H       0.886994     -1.981073      1.090235
6
Coordinates from ORCA-job 02_H2O_2 E -152.789713283348
  O       0.069316      1.261056      0.898568
  H       0.073918      1.689798      0.041669
  H       0.110120      0.315032      0.705718
  O       0.143929     -1.619555      0.602104
  H      -0.635359     -1.996408      1.016741
  H       0.887025     -1.982249      1.089627
