12
Coordinates from ORCA-job 04_H2O_4 E -305.609120774263
  O       1.372659     -1.372658      0.015734
  H       0.406261     -1.511316     -0.008945
  H       1.683553     -1.872433      0.772059
  O      -1.372658     -1.372658     -0.015734
  H      -1.511316     -0.406261      0.008945
  H      -1.872433     -1.683553     -0.772059
  O      -1.372658      1.372659      0.015734
  H      -0.406261      1.511317     -0.008945
  H      -1.683553      1.872433      0.772059
  O       1.372659      1.372659     -0.015734
  H       1.511317      0.406261      0.008945
  H       1.872433      1.683553     -0.772059
12
Coordinates from ORCA-job 04_H2O_4 E -305.609156031109
  O       1.369986     -1.369642      0.015970
  H       0.402269     -1.507882     -0.008843
  H       1.682710     -1.869021      0.771953
  O      -1.369642     -1.369986     -0.015970
  H      -1.507882     -0.402269      0.008843
  H      -1.869021     -1.682711     -0.771953
  O      -1.369985      1.369644      0.015970
  H      -0.402268      1.507883     -0.008843
  H      -1.682710      1.869021      0.771953
  O       1.369643      1.369986     -0.015970
  H       1.507882      0.402269      0.008843
  H       1.869021      1.682711     -0.771953
12
Coordinates from ORCA-job 04_H2O_4 E -305.609181345451
  O       1.363819     -1.362640      0.016432
  H       0.394487     -1.499999     -0.008626
  H       1.679611     -1.861170      0.771515
  O      -1.362641     -1.363820     -0.016432
  H      -1.499999     -0.394488      0.008625
  H      -1.861172     -1.679612     -0.771516
  O      -1.363818      1.362641      0.016431
  H      -0.394485      1.499999     -0.008626
  H      -1.679608      1.861172      0.771516
  O       1.362640      1.363820     -0.016431
  H       1.499998      0.394488      0.008626
  H       1.861170      1.679612     -0.771515
12
Coordinates from ORCA-job 04_H2O_4 E -305.609181735529
  O       1.364040     -1.362884      0.016485
  H       0.394644     -1.500208     -0.008600
  H       1.679805     -1.861457      0.771528
  O      -1.362885     -1.364040     -0.016485
  H      -1.500208     -0.394644      0.008600
  H      -1.861458     -1.679806     -0.771528
  O      -1.364038      1.362885      0.016485
  H      -0.394642      1.500209     -0.008600
  H      -1.679803      1.861458      0.771528
  O       1.362884      1.364041     -0.016484
  H       1.500208      0.394645      0.008600
  H       1.861457      1.679806     -0.771528
