15
Coordinates from ORCA-job 05_H2O_5 E -382.014377750736
  O       2.312927      0.150318      0.177415
  O       0.864769     -2.137443     -0.159420
  O      -1.781315     -1.498466      0.059758
  O      -1.961951      1.234812     -0.062774
  O       0.577396      2.241432     -0.075822
  H       1.836849     -0.694236      0.049250
  H      -0.089971     -1.943593     -0.076678
  H      -1.915322     -0.530797      0.048103
  H      -1.066728      1.628166     -0.074484
  H       1.229463      1.522335      0.042111
  H       2.825562      0.034681      0.978576
  H       0.953988     -2.623745     -0.980296
  H      -2.260123     -1.814802      0.826889
  H      -2.472247      1.784461      0.533098
  H       0.863928      2.712310     -0.859811
15
Coordinates from ORCA-job 05_H2O_5 E -382.014441009520
  O       2.305498      0.150506      0.179926
  O       0.862904     -2.130508     -0.160920
  O      -1.775434     -1.494401      0.059904
  O      -1.956264      1.230606     -0.060713
  O       0.575219      2.234712     -0.078356
  H       1.828907     -0.695269      0.049998
  H      -0.093389     -1.936903     -0.077460
  H      -1.909366     -0.525162      0.048565
  H      -1.059727      1.624814     -0.074049
  H       1.228322      1.514814      0.041526
  H       2.818077      0.036520      0.981570
  H       0.954367     -2.616828     -0.981726
  H      -2.253702     -1.813453      0.826493
  H      -2.468571      1.780003      0.533973
  H       0.860383      2.705983     -0.862819
15
Coordinates from ORCA-job 05_H2O_5 E -382.014475526768
  O       2.293133      0.150601      0.183914
  O       0.859623     -2.119140     -0.163515
  O      -1.765644     -1.487456      0.060514
  O      -1.946679      1.223641     -0.057724
  O       0.571626      2.223602     -0.082128
  H       1.816000     -0.696408      0.051226
  H      -0.098439     -1.926215     -0.078885
  H      -1.899221     -0.516539      0.049432
  H      -1.048882      1.619141     -0.073458
  H       1.225933      1.502972      0.040622
  H       2.805270      0.038983      0.985968
  H       0.954419     -2.605203     -0.983914
  H      -2.242604     -1.810253      0.826140
  H      -2.462017      1.772399      0.534610
  H       0.854706      2.695308     -0.866886
15
Coordinates from ORCA-job 05_H2O_5 E -382.014476286248
  O       2.293576      0.150476      0.184522
  O       0.859750     -2.119799     -0.164242
  O      -1.766071     -1.487797      0.061011
  O      -1.947096      1.224073     -0.057630
  O       0.571918      2.224236     -0.082496
  H       1.816363     -0.696507      0.051491
  H      -0.098400     -1.927077     -0.079370
  H      -1.899502     -0.516810      0.049778
  H      -1.049336      1.619804     -0.073510
  H       1.226241      1.503570      0.040449
  H       2.805575      0.038816      0.986647
  H       0.954712     -2.605791     -0.984658
  H      -2.242703     -1.810627      0.826813
  H      -2.462813      1.772873      0.534324
  H       0.855011      2.695993     -0.867213
