18
Coordinates from ORCA-job 08_H2O_6_cage E -458.421766817642
  O       0.862065     -1.728538     -0.448765
  H       1.679686     -1.216793     -0.290371
  H       1.141594     -2.607406     -0.709910
  O      -0.751083      0.359939     -1.648316
  H      -0.283702     -0.473988     -1.502279
  H      -1.624922      0.215720     -1.247934
  O       0.590537      1.756310      0.198185
  H       0.069166      1.374794     -0.548651
  H       0.493944      2.707937      0.134574
  O      -0.675492     -0.446436      1.665684
  H      -0.188802     -1.063799      1.102054
  H      -0.260662      0.405216      1.474464
  O       2.803582      0.112403      0.084677
  H       2.165098      0.844551      0.158067
  H       3.282044      0.106258      0.915526
  O      -2.901034      0.010949      0.089937
  H      -2.258917     -0.224605      0.785219
  H      -3.643112     -0.584893      0.198028
18
Coordinates from ORCA-job 08_H2O_6_cage E -458.421800918184
  O       0.861351     -1.726069     -0.448910
  H       1.679368     -1.212689     -0.289911
  H       1.139849     -2.605177     -0.710428
  O      -0.749889      0.358179     -1.645868
  H      -0.281973     -0.475618     -1.499341
  H      -1.624224      0.214169     -1.244992
  O       0.590568      1.754544      0.198205
  H       0.068331      1.371994     -0.549653
  H       0.495257      2.706355      0.135900
  O      -0.674975     -0.445605      1.663994
  H      -0.188138     -1.063145      1.100286
  H      -0.259890      0.405956      1.472497
  O       2.799100      0.112225      0.084485
  H       2.159776      0.845109      0.158018
  H       3.278686      0.104097      0.914710
  O      -2.897554      0.011126      0.089415
  H      -2.254682     -0.224427      0.785673
  H      -3.640974     -0.583404      0.196108
18
Coordinates from ORCA-job 08_H2O_6_cage E -458.421829608998
  O       0.859838     -1.720288     -0.448685
  H       1.677600     -1.203969     -0.288686
  H       1.136416     -2.599659     -0.710876
  O      -0.746342      0.356002     -1.639673
  H      -0.277680     -0.477732     -1.492454
  H      -1.621200      0.212137     -1.237937
  O       0.589991      1.749327      0.197117
  H       0.066593      1.365338     -0.552022
  H       0.497477      2.701464      0.137391
  O      -0.674098     -0.444374      1.659598
  H      -0.186790     -1.062034      1.095822
  H      -0.258480      0.407105      1.467685
  O       2.787272      0.111634      0.084027
  H       2.146865      0.845188      0.157420
  H       3.268544      0.100042      0.913079
  O      -2.887888      0.011679      0.089153
  H      -2.244445     -0.224067      0.786373
  H      -3.633684     -0.580175      0.192859
18
Coordinates from ORCA-job 08_H2O_6_cage E -458.421831611020
  O       0.860323     -1.720433     -0.448481
  H       1.677917     -1.203773     -0.288492
  H       1.136733     -2.599815     -0.710680
  O      -0.745855      0.357041     -1.639331
  H      -0.277254     -0.476930     -1.492300
  H      -1.620726      0.212940     -1.237456
  O       0.589674      1.748837      0.196265
  H       0.066157      1.364832     -0.553029
  H       0.497565      2.701016      0.136844
  O      -0.674510     -0.444916      1.659599
  H      -0.186952     -1.062643      1.095862
  H      -0.258911      0.406785      1.467806
  O       2.786356      0.111592      0.084026
  H       2.145721      0.845005      0.157088
  H       3.267473      0.100122      0.913130
  O      -2.887033      0.011899      0.089658
  H      -2.243670     -0.224205      0.786794
  H      -3.633019     -0.579736      0.192884
18
Coordinates from ORCA-job 08_H2O_6_cage E -458.421833491581
  O       0.861617     -1.721544     -0.448023
  H       1.678834     -1.204391     -0.288199
  H       1.138009     -2.600903     -0.710168
  O      -0.745410      0.359440     -1.639060
  H      -0.277014     -0.474894     -1.492656
  H      -1.620190      0.214957     -1.236923
  O       0.589100      1.748174      0.194498
  H       0.065296      1.364272     -0.554959
  H       0.497621      2.700419      0.135506
  O      -0.675287     -0.446376      1.659932
  H      -0.187407     -1.064265      1.096469
  H      -0.259937      0.405710      1.468616
  O       2.785568      0.111775      0.084077
  H       2.144323      0.844674      0.156400
  H       3.266130      0.101125      0.913499
  O      -2.886068      0.012605      0.090585
  H      -2.242873     -0.224391      0.787465
  H      -3.632323     -0.578766      0.193131
