18
Coordinates from ORCA-job 09_H2O_6_prism E -458.421975901403
  O      -1.511782     -0.232325      1.434522
  H      -0.613900     -0.631798      1.542476
  H      -2.015087     -0.484249      2.210210
  O      -1.744551     -0.350365     -1.322141
  H      -1.890020     -0.475498     -0.368433
  H      -2.508917     -0.726304     -1.761973
  O      -0.568902      2.010658     -0.079448
  H      -0.957800      1.521230      0.658817
  H      -0.991476      1.598457     -0.842120
  O       0.972064     -1.194842      1.413465
  H       0.986177     -1.536208      0.500658
  H       1.544338     -0.420911      1.334663
  O       0.983916     -1.359847     -1.372465
  H       0.077993     -1.073694     -1.552782
  H       1.480193     -0.535792     -1.283351
  O       2.003223      1.063257     -0.092296
  H       1.144078      1.530799     -0.098089
  H       2.672690      1.741694     -0.193152
18
Coordinates from ORCA-job 09_H2O_6_prism E -458.421999601280
  O      -1.510352     -0.232456      1.434435
  H      -0.610991     -0.632399      1.542355
  H      -2.015175     -0.483222      2.209573
  O      -1.742826     -0.351135     -1.321879
  H      -1.888366     -0.476178     -0.367256
  H      -2.506239     -0.726621     -1.763911
  O      -0.567902      2.009564     -0.079729
  H      -0.956848      1.520151      0.658914
  H      -0.990341      1.597092     -0.842491
  O       0.971320     -1.193790      1.412950
  H       0.984904     -1.535429      0.499384
  H       1.543655     -0.419813      1.333899
  O       0.981494     -1.358413     -1.371477
  H       0.075131     -1.072215     -1.551603
  H       1.478215     -0.534373     -1.282067
  O       2.001864      1.062838     -0.091899
  H       1.141526      1.531100     -0.097941
  H       2.673167      1.739560     -0.192696
18
Coordinates from ORCA-job 09_H2O_6_prism E -458.422018394278
  O      -1.505995     -0.232744      1.432476
  H      -0.604709     -0.633241      1.540405
  H      -2.013976     -0.481169      2.206177
  O      -1.738033     -0.352247     -1.319826
  H      -1.883274     -0.476944     -0.364465
  H      -2.499682     -0.726734     -1.765483
  O      -0.564774      2.005656     -0.080378
  H      -0.953822      1.516334      0.658691
  H      -0.987027      1.592731     -0.843131
  O       0.968423     -1.190675      1.410611
  H       0.981104     -1.532649      0.496281
  H       1.540860     -0.416581      1.331217
  O       0.975767     -1.354610     -1.368133
  H       0.068930     -1.068403     -1.547909
  H       1.473234     -0.530855     -1.278186
  O       1.997278      1.061412     -0.090853
  H       1.136003      1.530315     -0.097506
  H       2.671929      1.734667     -0.191425
18
Coordinates from ORCA-job 09_H2O_6_prism E -458.422020489058
  O      -1.505116     -0.232892      1.431563
  H      -0.603705     -0.633386      1.539607
  H      -2.013773     -0.480919      2.204876
  O      -1.737549     -0.352284     -1.319051
  H      -1.882378     -0.476854     -0.363710
  H      -2.499197     -0.726640     -1.764690
  O      -0.564185      2.004908     -0.080526
  H      -0.953245      1.515483      0.658586
  H      -0.986505      1.592022     -0.843371
  O       0.967727     -1.190049      1.409989
  H       0.980420     -1.532118      0.495633
  H       1.540213     -0.415826      1.330744
  O       0.975116     -1.354156     -1.367442
  H       0.068205     -1.068006     -1.547303
  H       1.472759     -0.530461     -1.277482
  O       1.996510      1.061305     -0.090545
  H       1.135362      1.530064     -0.097357
  H       2.671578      1.734071     -0.190960
