6
Final structure: -152.769 hartree
O           -0.100439196          1.406930008          0.023874255
H           -1.065070792          1.490942753         -0.015138099
H            0.062052691          0.441207737          0.013138533
O            0.481664857         -1.438553241          0.002145242
H            0.272531250         -1.970340728         -0.781955415
H            0.217448111         -1.986590009          0.757935484
