9
Final structure: -229.17 hartree
O           -1.462314917         -0.634829552         -0.108807648
H           -0.565872705         -1.054657862         -0.091454363
H           -1.939898704         -1.009092250          0.647280600
O            1.286414732         -0.929573482         -0.172661581
H            1.859491591         -1.217759580          0.554162688
H            1.179049912          0.048197524         -0.052047457
O            0.169418951          1.569057448          0.168148554
H           -0.630886047          0.990279166          0.086850461
H            0.114829188          2.189572588         -0.575020254
