15
Final structure: -381.97 hartree
O            2.257767738          0.149744671          0.114423451
O            0.850254161         -2.105900334         -0.091385152
O           -1.736360295         -1.462923501          0.027327238
O           -1.923518551          1.203695063         -0.126760545
O            0.552678944          2.197293281         -0.019014710
H            1.753264264         -0.716343893          0.031915074
H           -0.129818429         -1.885291709         -0.051013808
H           -1.854598393         -0.465809318          0.006865332
H           -1.000664579          1.601405212         -0.088089685
H            1.213605500          1.442289082          0.047313806
H            2.760310999          0.078282542          0.939946715
H            0.973062066         -2.581206524         -0.927070849
H           -2.163912593         -1.762037748          0.843751636
H           -2.439650087          1.687136429          0.535527931
H            0.804804254          2.685099746         -0.817821435
