18
Final structure: -458.368 hartree
O            0.101772804          1.508967648          0.883854167
H            0.969835143          1.483588601          0.361360137
H            0.234271355          2.141600998          1.605963010
O           -0.020643323         -1.388073257          0.975135203
H           -0.027136866         -0.429816072          1.186289746
H           -0.861236601         -1.516612368          0.457997059
O           -2.282230540          1.338707043         -0.437029002
H           -1.406756028          1.508054730          0.002533622
H           -2.239789467          1.796154550         -1.290358986
O           -2.350912310         -1.389589734         -0.482197728
H           -2.427591173         -0.397248172         -0.523202521
H           -3.142689121         -1.687248232         -0.008545506
O            2.360847001          1.200085764         -0.431353352
H            2.390486341          0.189828388         -0.492637590
H            2.406524045          1.517050367         -1.346202990
O            2.174995691         -1.431485174         -0.495011344
H            1.325432513         -1.524992411          0.049065757
H            2.844053535         -1.954879669         -0.028426683
