18
Final structure: -458.368 hartree
O            0.627357899         -1.800947792         -0.247121638
H            1.517776630         -1.339301146         -0.224774729
H            0.806142100         -2.741988923         -0.393186276
O           -0.838900924          0.258348068         -1.615581061
H           -0.427914700         -0.605876963         -1.393182830
H           -1.679139939          0.261435196         -1.082135195
O            0.765674337          1.656054364         -0.090850202
H            0.124841555          1.223151965         -0.759254124
H            0.798437208          2.600581181         -0.304620934
O           -0.582160936         -0.140993123          1.776390274
H           -0.198011786         -0.878879478          1.251958414
H           -0.108967628          0.643042696          1.424305134
O            2.751443998         -0.171358418         -0.145268606
H            2.159567141          0.632561701         -0.128481220
H            3.224593643         -0.157394839          0.701180361
O           -2.810777000          0.328110847          0.281193422
H           -2.115906591          0.109719858          0.964943338
H           -3.514065007         -0.328646194          0.394674863
