18
Final structure: -458.368 hartree
O           -1.423726689          0.009323053          1.436411087
H           -0.572910449         -0.551742478          1.532060876
H           -1.958965412         -0.141681060          2.229451176
O           -1.786654789         -0.159296018         -1.259149270
H           -1.890462913         -0.222398418         -0.273858988
H           -2.624677255         -0.457301691         -1.644017076
O           -0.296190681          2.097341268         -0.079560755
H           -0.710988954          1.604426676          0.665490386
H           -0.787820738          1.744959286         -0.846650377
O            0.811873098         -1.327932090          1.397768572
H            0.755637497         -1.634696903          0.447304117
H            1.484540220         -0.621271347          1.318284787
O            0.739702933         -1.518540980         -1.326950996
H           -0.147765723         -1.129986749         -1.496248837
H            1.331612316         -0.737420205         -1.269755515
O            2.059285214          0.772181664         -0.186035423
H            1.257254635          1.371729655         -0.167227911
H            2.822494697          1.346568342         -0.348754855
