3
Coordinates from ORCA-job 01_H2O E -76.112453347555
  O       0.000000      0.000000      0.124348
  H       0.000000     -1.431393     -0.986748
  H       0.000000      1.431393     -0.986748
3
Coordinates from ORCA-job 01_H2O E -76.147771170208
  O       0.000000     -0.000000      0.098075
  H       0.000000     -1.320853     -0.973611
  H       0.000000      1.320853     -0.973611
3
Coordinates from ORCA-job 01_H2O E -76.187778229784
  O       0.000000      0.000000      0.067627
  H       0.000000     -1.214229     -0.958388
  H       0.000000      1.214229     -0.958388
3
Coordinates from ORCA-job 01_H2O E -76.232101568900
  O       0.000000     -0.000000      0.031121
  H       0.000000     -1.114085     -0.940134
  H       0.000000      1.114085     -0.940135
3
Coordinates from ORCA-job 01_H2O E -76.279753919712
  O       0.000000     -0.000000     -0.010866
  H       0.000000     -1.020324     -0.919141
  H       0.000000      1.020324     -0.919141
3
Coordinates from ORCA-job 01_H2O E -76.328486891598
  O       0.000000     -0.000000     -0.057619
  H       0.000000     -0.932519     -0.895765
  H       0.000000      0.932519     -0.895765
3
Coordinates from ORCA-job 01_H2O E -76.373839933912
  O       0.000000     -0.000000     -0.108351
  H       0.000000     -0.849987     -0.870399
  H       0.000000      0.849987     -0.870399
3
Coordinates from ORCA-job 01_H2O E -76.406827165509
  O       0.000000     -0.000000     -0.164322
  H       0.000000     -0.774876     -0.842413
  H       0.000000      0.774876     -0.842413
3
Coordinates from ORCA-job 01_H2O E -76.412083833120
  O       0.000000     -0.000000     -0.235963
  H       0.000000     -0.727979     -0.806593
  H       0.000000      0.727979     -0.806593
3
Coordinates from ORCA-job 01_H2O E -76.414699202696
  O       0.000000      0.000001     -0.221245
  H       0.000000     -0.766733     -0.813952
  H       0.000000      0.766732     -0.813952
3
Coordinates from ORCA-job 01_H2O E -76.414824545108
  O       0.000000     -0.000011     -0.225017
  H       0.000000     -0.761827     -0.812061
  H       0.000000      0.761838     -0.812070
3
Coordinates from ORCA-job 01_H2O E -76.414826057726
  O       0.000000      0.000300     -0.225532
  H       0.000000     -0.761262     -0.811924
  H       0.000000      0.760962     -0.811692
3
Coordinates from ORCA-job 01_H2O E -76.414720718957
  O       0.000000     -0.004705     -0.226997
  H       0.000000     -0.756726     -0.809264
  H       0.000000      0.761431     -0.812888
3
Coordinates from ORCA-job 01_H2O E -76.414826420985
  O       0.000000      0.000001     -0.225508
  H       0.000000     -0.761134     -0.811821
  H       0.000000      0.761134     -0.811820
3
Coordinates from ORCA-job 01_H2O E -76.414826415860
  O       0.000000      0.000000     -0.225515
  H       0.000000     -0.761131     -0.811817
  H       0.000000      0.761131     -0.811816
