9
Coordinates from ORCA-job 03_H2O_3 E -229.270233529665
  O      -1.476811     -0.647642     -0.082126
  H      -0.613415     -1.087457     -0.037065
  H      -2.026236     -1.086841      0.568502
  O       1.305672     -0.945117     -0.091536
  H       1.973931     -1.196903      0.547209
  H       1.226840      0.019839     -0.021857
  O       0.169678      1.599733      0.108456
  H      -0.629586      1.051269      0.060063
  H       0.080159      2.244313     -0.595195
9
Coordinates from ORCA-job 03_H2O_3 E -229.270282128702
  O      -1.477910     -0.648770     -0.081790
  H      -0.611302     -1.088876     -0.036713
  H      -2.030798     -1.086918      0.569374
  O       1.307348     -0.945578     -0.091606
  H       1.976845     -1.200753      0.547297
  H       1.226994      0.022357     -0.021958
  O       0.169042      1.601274      0.108116
  H      -0.632028      1.050048      0.059792
  H       0.082039      2.248409     -0.596061
9
Coordinates from ORCA-job 03_H2O_3 E -229.270290048118
  O      -1.475342     -0.647648     -0.081534
  H      -0.608110     -1.087287     -0.036591
  H      -2.029490     -1.084839      0.569236
  O       1.305242     -0.943942     -0.091632
  H       1.974644     -1.200857      0.546694
  H       1.224096      0.024289     -0.021874
  O       0.168557      1.598534      0.108067
  H      -0.632398      1.046496      0.059688
  H       0.083033      2.246448     -0.595603
9
Coordinates from ORCA-job 03_H2O_3 E -229.270293564996
  O      -1.472007     -0.646124     -0.081273
  H      -0.604248     -1.085112     -0.036457
  H      -2.027235     -1.082110      0.568971
  O       1.302446     -0.941840     -0.091695
  H       1.971428     -1.200563      0.545908
  H       1.220404      0.026494     -0.021738
  O       0.167997      1.594946      0.108080
  H      -0.632646      1.042100      0.059561
  H       0.084093      2.243404     -0.594906
9
Coordinates from ORCA-job 03_H2O_3 E -229.270293702823
  O      -1.471908     -0.646080     -0.081318
  H      -0.604127     -1.085002     -0.036466
  H      -2.027069     -1.081967      0.569005
  O       1.302389     -0.941763     -0.091764
  H       1.971240     -1.200525      0.545915
  H       1.220282      0.026549     -0.021721
  O       0.167955      1.594833      0.108145
  H      -0.632648      1.041943      0.059546
  H       0.084117      2.243205     -0.594890
