12
Coordinates from ORCA-job 04_H2O_4 E -305.704992309677
  O       1.372659     -1.372658      0.015734
  H       0.406261     -1.511316     -0.008945
  H       1.683553     -1.872433      0.772059
  O      -1.372658     -1.372658     -0.015734
  H      -1.511316     -0.406261      0.008945
  H      -1.872433     -1.683553     -0.772059
  O      -1.372658      1.372659      0.015734
  H      -0.406261      1.511317     -0.008945
  H      -1.683553      1.872433      0.772059
  O       1.372659      1.372659     -0.015734
  H       1.511317      0.406261      0.008945
  H       1.872433      1.683553     -0.772059
12
Coordinates from ORCA-job 04_H2O_4 E -305.705078134816
  O       1.372742     -1.372898      0.016056
  H       0.402681     -1.511203     -0.008839
  H       1.686966     -1.872916      0.773188
  O      -1.372898     -1.372742     -0.016056
  H      -1.511203     -0.402681      0.008839
  H      -1.872915     -1.686966     -0.773188
  O      -1.372742      1.372899      0.016055
  H      -0.402681      1.511204     -0.008839
  H      -1.686966      1.872916      0.773188
  O       1.372898      1.372742     -0.016055
  H       1.511203      0.402681      0.008839
  H       1.872915      1.686966     -0.773189
12
Coordinates from ORCA-job 04_H2O_4 E -305.705103783045
  O       1.369236     -1.368952      0.016321
  H       0.397943     -1.506763     -0.008711
  H       1.685510     -1.868471      0.773170
  O      -1.368951     -1.369235     -0.016321
  H      -1.506763     -0.397942      0.008711
  H      -1.868470     -1.685510     -0.773170
  O      -1.369235      1.368953      0.016320
  H      -0.397942      1.506764     -0.008711
  H      -1.685510      1.868471      0.773170
  O       1.368952      1.369235     -0.016320
  H       1.506763      0.397942      0.008711
  H       1.868470      1.685510     -0.773170
12
Coordinates from ORCA-job 04_H2O_4 E -305.705112572583
  O       1.365563     -1.364784      0.016573
  H       0.393627     -1.502114     -0.008574
  H       1.683269     -1.863625      0.772832
  O      -1.364783     -1.365560     -0.016573
  H      -1.502115     -0.393625      0.008574
  H      -1.863625     -1.683266     -0.772833
  O      -1.365561      1.364785      0.016573
  H      -0.393625      1.502115     -0.008574
  H      -1.683266      1.863626      0.772832
  O       1.364782      1.365560     -0.016573
  H       1.502114      0.393625      0.008575
  H       1.863623      1.683266     -0.772832
12
Coordinates from ORCA-job 04_H2O_4 E -305.705112669678
  O       1.365465     -1.364682      0.016617
  H       0.393584     -1.501971     -0.008544
  H       1.683124     -1.863463      0.772825
  O      -1.364681     -1.365462     -0.016617
  H      -1.501970     -0.393581      0.008544
  H      -1.863462     -1.683121     -0.772825
  O      -1.365463      1.364683      0.016616
  H      -0.393581      1.501971     -0.008544
  H      -1.683120      1.863464      0.772825
  O       1.364678      1.365462     -0.016616
  H       1.501969      0.393581      0.008545
  H       1.863459      1.683121     -0.772824
