15
Coordinates from ORCA-job 05_H2O_5 E -382.134261800640
  O       2.312927      0.150318      0.177415
  O       0.864769     -2.137443     -0.159420
  O      -1.781315     -1.498466      0.059758
  O      -1.961951      1.234812     -0.062774
  O       0.577396      2.241432     -0.075822
  H       1.836849     -0.694236      0.049250
  H      -0.089971     -1.943593     -0.076678
  H      -1.915322     -0.530797      0.048103
  H      -1.066728      1.628166     -0.074484
  H       1.229463      1.522335      0.042111
  H       2.825562      0.034681      0.978576
  H       0.953988     -2.623745     -0.980296
  H      -2.260123     -1.814802      0.826889
  H      -2.472247      1.784461      0.533098
  H       0.863928      2.712310     -0.859811
15
Coordinates from ORCA-job 05_H2O_5 E -382.134393746550
  O       2.309885      0.150488      0.182401
  O       0.864562     -2.134927     -0.163513
  O      -1.778972     -1.497286      0.061228
  O      -1.960016      1.233341     -0.060409
  O       0.576672      2.239025     -0.080138
  H       1.832313     -0.697205      0.050688
  H      -0.093945     -1.940867     -0.078709
  H      -1.913021     -0.525716      0.049636
  H      -1.061264      1.628329     -0.074533
  H       1.231113      1.517397      0.041315
  H       2.822098      0.036970      0.986405
  H       0.956799     -2.620899     -0.986498
  H      -2.256902     -1.817529      0.829690
  H      -2.473873      1.783649      0.534863
  H       0.861775      2.710662     -0.866511
15
Coordinates from ORCA-job 05_H2O_5 E -382.134434519060
  O       2.299960      0.150580      0.189569
  O       0.862320     -2.126236     -0.167361
  O      -1.771287     -1.492138      0.060605
  O      -1.952603      1.228752     -0.054783
  O       0.574643      2.231210     -0.088123
  H       1.822201     -0.698183      0.053759
  H      -0.097773     -1.932694     -0.081452
  H      -1.905044     -0.518972      0.050773
  H      -1.052593      1.624697     -0.073715
  H       1.229760      1.508939      0.038680
  H       2.807327      0.039333      0.997181
  H       0.957528     -2.609553     -0.991779
  H      -2.248168     -1.816546      0.828216
  H      -2.466265      1.777395      0.542459
  H       0.857220      2.698851     -0.878114
15
Coordinates from ORCA-job 05_H2O_5 E -382.134441536008
  O       2.293824      0.150677      0.193622
  O       0.860979     -2.121159     -0.169303
  O      -1.766847     -1.488746      0.059867
  O      -1.947918      1.226098     -0.051153
  O       0.573510      2.226476     -0.092959
  H       1.816140     -0.698295      0.055687
  H      -0.099669     -1.928076     -0.083171
  H      -1.900129     -0.515126      0.051268
  H      -1.047720      1.622513     -0.073061
  H       1.228655      1.504203      0.036819
  H       2.797860      0.040837      1.003071
  H       0.957992     -2.602785     -0.994059
  H      -2.243094     -1.815383      0.826457
  H      -2.460780      1.773118      0.547657
  H       0.854422      2.691079     -0.884827
15
Coordinates from ORCA-job 05_H2O_5 E -382.134441686079
  O       2.293428      0.150721      0.194202
  O       0.860828     -2.121109     -0.168886
  O      -1.766854     -1.488605      0.058724
  O      -1.947571      1.226352     -0.049610
  O       0.573805      2.226751     -0.094433
  H       1.815634     -0.698113      0.056350
  H      -0.099829     -1.928182     -0.083497
  H      -1.899828     -0.515009      0.050952
  H      -1.047540      1.622930     -0.072535
  H       1.228804      1.504521      0.035846
  H       2.796875      0.041276      1.003962
  H       0.958581     -2.602983     -0.993287
  H      -2.243649     -1.816027      0.824508
  H      -2.459669      1.772456      0.550543
  H       0.854210      2.690454     -0.886925
