18
Coordinates from ORCA-job 06_H2O_6_ring E -458.563112258061
  O       0.000000      2.709181      0.148099
  H      -0.122498      3.233153      0.940879
  H      -0.836919      2.216592      0.034772
  O      -2.346219     -1.354590      0.148099
  H      -1.501165     -1.833089      0.034772
  H      -2.738743     -1.722662      0.940879
  O       2.346220      1.354591     -0.148098
  H       2.738743      1.722663     -0.940878
  H       1.501165      1.833090     -0.034772
  O       0.000000     -2.709181     -0.148098
  H       0.836920     -2.216591     -0.034772
  H       0.122498     -3.233152     -0.940878
  O       2.346220     -1.354590      0.148099
  H       2.861241     -1.510489      0.940879
  H       2.338085     -0.383502      0.034772
  O      -2.346219      1.354591     -0.148098
  H      -2.861241      1.510490     -0.940878
  H      -2.338084      0.383502     -0.034772
18
Coordinates from ORCA-job 06_H2O_6_ring E -458.563281156832
  O       0.000450      2.704555      0.152000
  H      -0.119649      3.228807      0.947200
  H      -0.839739      2.210768      0.035243
  O      -2.342318     -1.351478      0.151942
  H      -1.494540     -1.832137      0.035192
  H      -2.736242     -1.717670      0.947143
  O       2.342314      1.351491     -0.151943
  H       2.736230      1.717696     -0.947141
  H       1.494535      1.832145     -0.035179
  O      -0.000455     -2.704558     -0.151961
  H       0.839737     -2.210768     -0.035232
  H       0.119637     -3.228845     -0.947139
  O       2.342107     -1.352979      0.151926
  H       2.856119     -1.510977      0.947189
  H       2.334335     -0.378459      0.035203
  O      -2.342100      1.352982     -0.151964
  H      -2.856082      1.510971     -0.947246
  H      -2.334334      0.378463     -0.035228
18
Coordinates from ORCA-job 06_H2O_6_ring E -458.563342176825
  O       0.001224      2.691862      0.156323
  H      -0.116261      3.213491      0.953889
  H      -0.840602      2.198137      0.035691
  O      -2.331395     -1.343982      0.156379
  H      -1.482811     -1.825960      0.035620
  H      -2.724115     -1.706636      0.954050
  O       2.331420      1.343961     -0.156252
  H       2.724254      1.706636     -0.953858
  H       1.482822      1.825944     -0.035599
  O      -0.001236     -2.691849     -0.156486
  H       0.840590     -2.198144     -0.035781
  H       0.116233     -3.213329     -0.954154
  O       2.330858     -1.347739      0.156358
  H       2.841049     -1.506451      0.954191
  H       2.323606     -0.371835      0.035738
  O      -2.330885      1.347707     -0.156317
  H      -2.841132      1.506387     -0.954120
  H      -2.323615      0.371807     -0.035666
18
Coordinates from ORCA-job 06_H2O_6_ring E -458.563349019562
  O       0.001428      2.685723      0.159245
  H      -0.114753      3.204350      0.958458
  H      -0.840786      2.192465      0.036219
  O      -2.325880     -1.340364      0.159217
  H      -1.477449     -1.822809      0.036078
  H      -2.716627     -1.700482      0.958503
  O       2.325890      1.340357     -0.159122
  H       2.716715      1.700497     -0.958360
  H       1.477449      1.822799     -0.036054
  O      -0.001438     -2.685722     -0.159346
  H       0.840778     -2.192474     -0.036281
  H       0.114726     -3.204258     -0.958619
  O       2.325573     -1.345176      0.159221
  H       2.832470     -1.503355      0.958755
  H       2.318576     -0.369166      0.036239
  O      -2.325585      1.345159     -0.159212
  H      -2.832505      1.503310     -0.958737
  H      -2.318581      0.369153     -0.036200
18
Coordinates from ORCA-job 06_H2O_6_ring E -458.563348647051
  O       0.001249      2.685311      0.160427
  H      -0.114669      3.202508      0.960484
  H      -0.840932      2.192357      0.036531
  O      -2.325269     -1.340034      0.160385
  H      -1.477080     -1.822548      0.036434
  H      -2.714905     -1.699198      0.960524
  O       2.325273      1.340067     -0.160148
  H       2.715062      1.699374     -0.960147
  H       1.477062      1.822562     -0.036275
  O      -0.001302     -2.685310     -0.160404
  H       0.840893     -2.192357     -0.036612
  H       0.114527     -3.202530     -0.960459
  O       2.325392     -1.345053      0.160205
  H       2.831009     -1.502759      0.960522
  H       2.318417     -0.369209      0.036511
  O      -2.325410      1.345028     -0.160465
  H      -2.830868      1.502593     -0.960914
  H      -2.318444      0.369206     -0.036592
