18
Coordinates from ORCA-job 08_H2O_6_cage E -458.564880092062
  O       0.862065     -1.728538     -0.448765
  H       1.679686     -1.216793     -0.290371
  H       1.141594     -2.607406     -0.709910
  O      -0.751083      0.359939     -1.648316
  H      -0.283702     -0.473988     -1.502279
  H      -1.624922      0.215720     -1.247934
  O       0.590537      1.756310      0.198185
  H       0.069166      1.374794     -0.548651
  H       0.493944      2.707937      0.134574
  O      -0.675492     -0.446436      1.665684
  H      -0.188802     -1.063799      1.102054
  H      -0.260662      0.405216      1.474464
  O       2.803582      0.112403      0.084677
  H       2.165098      0.844551      0.158067
  H       3.282044      0.106258      0.915526
  O      -2.901034      0.010949      0.089937
  H      -2.258917     -0.224605      0.785219
  H      -3.643112     -0.584893      0.198028
18
Coordinates from ORCA-job 08_H2O_6_cage E -458.564984051489
  O       0.864610     -1.730889     -0.449953
  H       1.684523     -1.215967     -0.290598
  H       1.142846     -2.611804     -0.711860
  O      -0.752083      0.359571     -1.650891
  H      -0.283099     -0.475923     -1.504255
  H      -1.628334      0.215061     -1.249024
  O       0.591735      1.759573      0.198086
  H       0.068145      1.375867     -0.551831
  H       0.496820      2.713150      0.136444
  O      -0.677409     -0.447047      1.669171
  H      -0.189309     -1.065825      1.104412
  H      -0.261658      0.406357      1.477468
  O       2.806809      0.112823      0.084637
  H       2.165848      0.847378      0.158111
  H       3.287795      0.104036      0.916016
  O      -2.905480      0.010873      0.090113
  H      -2.261065     -0.225279      0.788172
  H      -3.650703     -0.584337      0.195972
18
Coordinates from ORCA-job 08_H2O_6_cage E -458.565005170652
  O       0.864626     -1.728699     -0.449874
  H       1.684342     -1.212303     -0.290086
  H       1.142004     -2.609873     -0.712082
  O      -0.750594      0.359212     -1.648721
  H      -0.281299     -0.476412     -1.501980
  H      -1.627075      0.214653     -1.246302
  O       0.591619      1.757488      0.197067
  H       0.067448      1.373191     -0.553459
  H       0.498224      2.711379      0.136713
  O      -0.677732     -0.446994      1.668030
  H      -0.189220     -1.065726      1.103193
  H      -0.261669      0.406483      1.476314
  O       2.801713      0.112594      0.084353
  H       2.160259      0.847491      0.157605
  H       3.283431      0.102217      0.915380
  O      -2.901378      0.011148      0.090428
  H      -2.256865     -0.225305      0.789024
  H      -3.647845     -0.582927      0.194586
18
Coordinates from ORCA-job 08_H2O_6_cage E -458.565022808411
  O       0.864845     -1.724784     -0.449307
  H       1.683775     -1.205870     -0.288963
  H       1.140788     -2.605954     -0.711897
  O      -0.747715      0.359564     -1.644223
  H      -0.278147     -0.476233     -1.497707
  H      -1.624184      0.214836     -1.240833
  O       0.591076      1.752866      0.194464
  H       0.065952      1.367863     -0.556780
  H       0.500531      2.706897      0.136344
  O      -0.678390     -0.447508      1.665743
  H      -0.189180     -1.066070      1.100988
  H      -0.261990      0.406047      1.474393
  O       2.791542      0.112235      0.083796
  H       2.149235      0.847261      0.156345
  H       3.273879      0.099652      0.914093
  O      -2.892636      0.012010      0.091211
  H      -2.248466     -0.225356      0.790437
  H      -3.640926     -0.579837      0.192087
18
Coordinates from ORCA-job 08_H2O_6_cage E -458.565024560244
  O       0.865321     -1.725115     -0.449070
  H       1.684097     -1.205982     -0.288835
  H       1.141293     -2.606216     -0.711642
  O      -0.747768      0.360344     -1.643972
  H      -0.278263     -0.475523     -1.497806
  H      -1.624140      0.215570     -1.240389
  O       0.590979      1.752441      0.193765
  H       0.065629      1.367509     -0.557470
  H       0.500736      2.706455      0.135798
  O      -0.678616     -0.448184      1.665904
  H      -0.189359     -1.066813      1.101280
  H      -0.262345      0.405500      1.474909
  O       2.791070      0.112441      0.083751
  H       2.148464      0.847220      0.156032
  H       3.273124      0.100172      0.914153
  O      -2.891926      0.012423      0.091371
  H      -2.247963     -0.225372      0.790584
  H      -3.640341     -0.579250      0.191824
