18
Coordinates from ORCA-job 09_H2O_6_prism E -458.564920547075
  O      -1.511782     -0.232325      1.434522
  H      -0.613900     -0.631798      1.542476
  H      -2.015087     -0.484249      2.210210
  O      -1.744551     -0.350365     -1.322141
  H      -1.890020     -0.475498     -0.368433
  H      -2.508917     -0.726304     -1.761973
  O      -0.568902      2.010658     -0.079448
  H      -0.957800      1.521230      0.658817
  H      -0.991476      1.598457     -0.842120
  O       0.972064     -1.194842      1.413465
  H       0.986177     -1.536208      0.500658
  H       1.544338     -0.420911      1.334663
  O       0.983916     -1.359847     -1.372465
  H       0.077993     -1.073694     -1.552782
  H       1.480193     -0.535792     -1.283351
  O       2.003223      1.063257     -0.092296
  H       1.144078      1.530799     -0.098089
  H       2.672690      1.741694     -0.193152
18
Coordinates from ORCA-job 09_H2O_6_prism E -458.565015690264
  O      -1.513814     -0.233864      1.438856
  H      -0.611917     -0.634847      1.547071
  H      -2.020247     -0.484631      2.215009
  O      -1.747697     -0.353122     -1.325600
  H      -1.893312     -0.478385     -0.368728
  H      -2.512088     -0.729104     -1.769183
  O      -0.569004      2.016045     -0.079871
  H      -0.958569      1.525469      0.660393
  H      -0.992220      1.603058     -0.844339
  O       0.974008     -1.197322      1.417192
  H       0.987439     -1.539773      0.501396
  H       1.547339     -0.421732      1.338398
  O       0.983598     -1.362494     -1.375742
  H       0.075197     -1.075919     -1.556166
  H       1.481425     -0.536699     -1.286534
  O       2.007082      1.066998     -0.092224
  H       1.144628      1.536457     -0.098231
  H       2.680389      1.744127     -0.193136
18
Coordinates from ORCA-job 09_H2O_6_prism E -458.565029259863
  O      -1.511736     -0.234421      1.438105
  H      -0.609154     -0.635637      1.546394
  H      -2.019756     -0.484163      2.213564
  O      -1.745910     -0.353912     -1.324798
  H      -1.891217     -0.479028     -0.367752
  H      -2.509677     -0.729480     -1.769803
  O      -0.567267      2.015202     -0.080169
  H      -0.956817      1.524589      0.660201
  H      -0.990422      1.602203     -0.844670
  O       0.972542     -1.196335      1.416405
  H       0.985654     -1.538883      0.500358
  H       1.545878     -0.420597      1.337709
  O       0.981148     -1.361352     -1.374463
  H       0.072565     -1.074825     -1.554803
  H       1.479205     -0.535666     -1.285259
  O       2.004977      1.067078     -0.091797
  H       1.142335      1.536864     -0.098072
  H       2.679888      1.742624     -0.192591
18
Coordinates from ORCA-job 09_H2O_6_prism E -458.565042091930
  O      -1.507047     -0.235485      1.435453
  H      -0.603260     -0.637071      1.543957
  H      -2.018473     -0.482943      2.209053
  O      -1.742318     -0.355257     -1.322274
  H      -1.886555     -0.479976     -0.364921
  H      -2.504890     -0.729940     -1.769459
  O      -0.563801      2.012959     -0.080795
  H      -0.953216      1.522191      0.659687
  H      -0.986825      1.600152     -0.845455
  O       0.969270     -1.193883      1.413910
  H       0.981889     -1.536645      0.497508
  H       1.542520     -0.417870      1.335716
  O       0.976408     -1.358913     -1.371109
  H       0.067556     -1.072612     -1.551473
  H       1.474972     -0.533587     -1.282034
  O       2.000265      1.066926     -0.090646
  H       1.137436      1.537246     -0.097568
  H       2.678306      1.738970     -0.190990
18
Coordinates from ORCA-job 09_H2O_6_prism E -458.565043633365
  O      -1.506699     -0.235567      1.434654
  H      -0.602842     -0.637175      1.543279
  H      -2.018560     -0.482823      2.207998
  O      -1.742592     -0.355229     -1.321677
  H      -1.886377     -0.479851     -0.364181
  H      -2.505368     -0.729918     -1.768468
  O      -0.563820      2.012903     -0.080851
  H      -0.953136      1.521996      0.659617
  H      -0.986834      1.600332     -0.845658
  O       0.969041     -1.193697      1.413401
  H       0.981779     -1.536514      0.496971
  H       1.542256     -0.417632      1.335533
  O       0.976609     -1.359020     -1.370672
  H       0.067748     -1.072849     -1.551234
  H       1.475311     -0.533748     -1.281733
  O       2.000107      1.066965     -0.090412
  H       1.137283      1.537274     -0.097434
  H       2.678332      1.738815     -0.190571
