9
Final structure: -229.376 hartree
O           -1.481657239         -0.652205462         -0.107344993
H           -0.591086438         -1.078966841         -0.079793961
H           -1.984118514         -1.040022911          0.627255332
O            1.311624401         -0.940961565         -0.153740081
H            1.909269399         -1.224809209          0.556662588
H            1.211790505          0.036717689         -0.044949566
O            0.165306212          1.596215678          0.156203765
H           -0.637664788          1.024559546          0.078787658
H            0.106768463          2.230667075         -0.576629742
