18
Final structure: -458.774 hartree
O            0.002195527          2.696620547          0.105228003
H           -0.090255648          3.214518587          0.920715691
H           -0.849856570          2.179123165          0.019269262
O           -2.337971477         -1.348475419          0.105807251
H           -1.464114281         -1.828961140          0.023795223
H           -2.744004959         -1.684972752          0.920485749
O            2.337969593          1.348478836         -0.105803296
H            2.744003038          1.684970757         -0.920484077
H            1.464112604          1.828964836         -0.023794185
O           -0.002189389         -2.696619073         -0.105225812
H            0.849863776         -2.179122868         -0.019271616
H            0.090255528         -3.214515916         -0.920714933
O            2.332778668         -1.348200130          0.110851179
H            2.828696070         -1.528398799          0.925323118
H            2.312801913         -0.351474631          0.025053668
O           -2.332779908          1.348199626         -0.110851993
H           -2.828698094          1.528397071         -0.925323660
H           -2.312802393          0.351474302         -0.025053574
