18
Final structure: -458.776 hartree
O            0.107193002          1.533309407          0.891341042
H            0.970097532          1.510332314          0.372600977
H            0.240628737          2.159746985          1.620613376
O           -0.023605398         -1.394309870          0.987514332
H           -0.032447232         -0.435158601          1.192841948
H           -0.865259981         -1.536200041          0.482258686
O           -2.316142831          1.360437031         -0.444689414
H           -1.441351748          1.531415885         -0.010243768
H           -2.289044307          1.833762782         -1.291591553
O           -2.404297008         -1.409039526         -0.476718420
H           -2.482356777         -0.420219649         -0.526162857
H           -3.205409014         -1.710092615         -0.018276902
O            2.404989127          1.215315760         -0.445391741
H            2.443310532          0.211551421         -0.502501488
H            2.475208135          1.534037492         -1.359548714
O            2.217937396         -1.461647824         -0.491887669
H            1.369472923         -1.554389502          0.042602246
H            2.880309911         -2.004758449         -0.035527082
