18
Final structure: -458.776 hartree
O            0.885131408         -1.700481896         -0.395136846
H            1.705543739         -1.144685867         -0.267728782
H            1.186382371         -2.593283989         -0.627149798
O           -0.784527905          0.322684249         -1.663497743
H           -0.275222728         -0.502120492         -1.507365679
H           -1.647481668          0.161997549         -1.202318002
O            0.547402027          1.752134329          0.146913570
H            0.011981456          1.333975624         -0.606278999
H            0.455005692          2.713911959          0.056496821
O           -0.661609802         -0.431034117          1.726358744
H           -0.161568215         -1.053565032          1.153485895
H           -0.271818232          0.440202813          1.500355031
O            2.796761114          0.189435973          0.013559514
H            2.110408269          0.906389235          0.083758244
H            3.250364907          0.178844155          0.872204795
O           -2.881884314         -0.036018673          0.129053990
H           -2.211720063         -0.255047159          0.832383511
H           -3.553158056         -0.735719659          0.165094729
