18
Final structure: -458.776 hartree
O           -1.623754160         -0.029807252          1.272971208
H           -0.732368906         -0.438547233          1.538114753
H           -2.237047165         -0.179236635          2.009612812
O           -1.574745880         -0.534697258         -1.441648031
H           -1.814222573         -0.514970438         -0.480298729
H           -2.310951792         -0.967271973         -1.903088416
O           -0.547050558          2.038160317         -0.385642860
H           -1.003176381          1.606687714          0.371130126
H           -0.884311230          1.525459798         -1.146773800
O            0.799790712         -1.025291200          1.672712982
H            0.904583928         -1.477988134          0.792993364
H            1.379322682         -0.244517065          1.550888840
O            1.111761561         -1.565913110         -1.044249472
H            0.215397720         -1.316771916         -1.360705804
H            1.600939990         -0.716582808         -1.020499148
O            1.978768206          1.049464122         -0.007824289
H            1.117345622          1.526915964         -0.171940490
H            2.681955224          1.709169104         -0.117192044
